16
Energy =  -7450.77797232 au
  O      2.79264400     -1.70180300     -0.82794100
  H      3.20926200     -1.18314800     -1.53013100
  H      1.83859400     -1.43911600     -0.94048300
  O      2.75912500      0.35924600      1.06171100
  H      2.89821200     -0.44600800      0.51771500
  H      2.00081600      0.10873400      1.62224100
  O     -0.91005500     -2.47279500      0.59518300
  H     -0.54497300     -2.12377400     -0.24070100
  H     -0.64933000     -1.75047100      1.20277200
  O     -3.43226800     -1.16166300      0.04105200
  H     -2.67530700     -1.73300700      0.27112200
  H     -2.98906400     -0.31628500     -0.15691200
  I     -0.02478700      0.82516400     -0.12271300
  O     -0.02007400      0.05193700      1.56922400
  O     -1.78414500      1.20369100     -0.49505900
  O      0.37295800     -0.63494000     -1.22439900
