16
Energy =  -7450.78745180 au
  O     -0.23349200     -2.53671900      0.42539700
  H     -0.05345100     -2.09051300     -0.42629000
  H     -0.22003400     -1.75207000      1.02327400
  O     -2.68071500      0.85009700      0.76654900
  H     -2.87690200      0.03090400      0.25757400
  H     -2.02358200      0.51794800      1.40676100
  O      2.76528300     -2.00360700      0.19739700
  H      1.88169600     -2.31617400      0.44875200
  H      2.63325200     -1.04345200      0.07848500
  O     -2.68900700     -1.48684400     -0.74360300
  H     -1.96458800     -1.00981600     -1.20959100
  H     -2.15044600     -2.08357800     -0.18947600
  I      0.26348300      0.88918200     -0.10640700
  O     -0.11764600      0.00833100      1.49683800
  O     -0.29246000     -0.33291400     -1.39967000
  O      2.09922100      0.82917000     -0.21164600
