#B3LYP/6-31+G(d) OPT FREQ

16, Energy =  -7450.79021089 au

0 1
  O     -1.02631900      2.56286900      1.05218100
  H     -0.66355100      1.74987600      1.47354300
  H     -1.64042900      2.13995300      0.42173700
  O      1.90879400     -1.80931300      1.11009000
  H      1.35550600     -1.21578200      1.65162600
  H      2.47541400     -1.14236100      0.65572900
  O      1.31946200      2.46435900     -0.50103400
  H      0.97208200      1.74360600     -1.06525800
  H      0.56331300      2.62910200      0.10407500
  O      3.01610900      0.26527900     -0.36092100
  H      2.59621600      1.10592300     -0.07699400
  H      2.32810700     -0.01062200     -0.99803800
  I     -0.66229900     -0.69281300     -0.16460300
  O     -2.20870800      0.26441400     -0.47601900
  O     -0.11518900      0.02762600      1.46981600
  O      0.49525000     -0.06031200     -1.47442400

