#B3LYP/6-31+G(d) OPT FREQ

16, Energy =  -7450.77593248 au

0 1
  O     -0.84513400      2.94645100     -0.55893700
  H     -1.00303600      2.52289800      0.30571400
  H      0.11470000      2.79258500     -0.63320900
  O      2.63127900     -1.96500900     -0.42694000
  H      3.21250100     -1.36692500     -0.91878900
  H      1.74684200     -1.55794900     -0.58048100
  O      4.09091900      0.25033400      0.57805700
  H      3.38596900      0.91304500      0.43516500
  H      3.57028800     -0.56253300      0.70101100
  O      1.71681200      1.71192300      0.03030900
  H      1.12306500      1.52472700      0.78812400
  H      1.43323700      0.96884400     -0.55647800
  I     -1.15475500     -0.31067700     -0.07535600
  O      0.43489800     -0.43557300     -1.05831800
  O     -0.67951300      0.85019300      1.30525000
  O     -1.39695700     -1.95442200      0.68718000

