#B3LYP/6-31+G(d) OPT FREQ

16, Energy =  -7450.76614329 au

0 1
  O     -1.92968700      1.41296100      1.91226900
  H     -2.39582200      0.66630500      1.51334500
  H     -1.00160100      1.20971400      1.70314400
  O     -2.54956600      0.77160500     -1.73641300
  H     -2.87714700     -0.13413100     -1.83980600
  H     -1.57589000      0.63082200     -1.63371400
  O     -2.75199800     -1.22451200      0.38691600
  H     -1.84249600     -1.58303200      0.48535100
  H     -2.57840200     -0.33805800      0.02463900
  O      1.16920800      2.91435800     -0.32162500
  H      0.73393700      2.23384300     -0.86225000
  H      1.05713000      2.51713800      0.55827700
  I      0.98020500     -0.53070900     -0.07370800
  O     -0.11692200     -1.96937800      0.29846900
  O      0.86361200      0.57664400      1.40869900
  O      0.13153100      0.38394700     -1.45362300

