#B3LYP/6-31+G(d) OPT FREQ

16, Energy =  -7450.79004772 au

0 1
  O      4.50721400     -0.82358800     -0.07323500
  H      3.97917100     -0.81278700      0.73970100
  H      3.84518500     -0.51830800     -0.72190200
  O      2.17030500      0.20395100     -1.40128700
  H      1.26754200     -0.14649800     -1.58067800
  H      1.99420800      1.05792500     -0.93519800
  O      1.94500300     -0.42891500      1.35197900
  H      1.99005000     -0.47499900      0.37486300
  H      1.02410600     -0.72766200      1.53776900
  O      1.51508100      2.17238100      0.40162300
  H      0.53576300      2.11230200      0.31858300
  H      1.71774600      1.41410100      0.99023700
  I     -1.48132400     -0.19215000     -0.06674200
  O     -1.19734200      1.62126100      0.15078000
  O     -0.73883200     -1.00470900      1.42175900
  O     -0.43187600     -0.70539500     -1.49987200

