16
Energy =  -7450.79196832 au
  O     -2.41454500      0.03977500      1.23764500
  H     -1.47352800     -0.18057200      1.41378500
  H     -2.46899200      0.10720800      0.25359400
  O     -2.25512100      0.62720900     -1.46441700
  H     -1.94781800      1.48189400     -1.09036200
  H     -1.42990800      0.11453500     -1.59420200
  O     -1.40314500      2.62897400      0.27757100
  H     -0.45872500      2.37859100      0.16753300
  H     -1.75581200      1.94361600      0.87724300
  O     -1.91658400     -2.62450000     -0.05387200
  H     -1.22851000     -2.11015200     -0.51401800
  H     -2.26459800     -1.96319700      0.56611800
  I      1.21287500     -0.17792000     -0.00261900
  O      0.32515200     -0.45912500      1.59029400
  O      1.15611500      1.64675000     -0.27695600
  O      0.10132200     -0.90185100     -1.30287800
