16
Energy =  -7450.78156376 au
  O     -2.40027200      0.32871500     -1.75681500
  H     -1.46609500      0.00798500     -1.71058100
  H     -2.36246300      1.12074300     -1.18401000
  O     -0.94182100     -2.30417000      0.58535800
  H     -1.72385400     -1.74483500      0.79713700
  H     -0.76089800     -2.03228100     -0.33258300
  O     -3.19649100     -0.65396500      0.68421800
  H     -3.06118600     -0.48956400     -0.28093400
  H     -2.97091400      0.22836100      1.02829600
  O     -2.14740200      1.96312300      0.46511800
  H     -2.03903600      2.90294300      0.65281600
  H     -1.24384300      1.56575700      0.69635300
  I      1.18880900     -0.13380300      0.11941500
  O      0.14984400     -0.57569600     -1.36644100
  O      0.11228100      0.96628200      1.16695000
  O      2.50154000      0.96727000     -0.52782300
