#B3LYP/6-31+G(d) OPT FREQ

16, Energy =  -7450.73372391 au

0 1
  O      2.86018800      2.87297500      0.68062900
  H      1.92705300      2.67958200      0.43255600
  H      2.82901400      3.82981500      0.81069800
  O      7.50526600     -1.79835400      0.35766300
  H      6.74170700     -1.91586300     -0.22497700
  H      7.41254900     -0.88566100      0.66097200
  O     -2.97165500     -0.69397400      2.26747100
  H     -2.86489600      0.16977800      1.83230800
  H     -2.05402600     -1.02831000      2.21249600
  O      0.25600800      2.73061700     -0.19032100
  H     -0.42999500      2.16771700      0.25427400
  H      0.35028700      2.23593400     -1.02134800
  I     -1.12808500     -0.55524600     -0.49972900
  O     -0.33463100     -1.39473800      0.93246500
  O      0.23134300      0.03188500     -1.59377400
  O     -1.81191800      1.02347200      0.23695000

