#B3LYP/6-31+G(d) OPT FREQ

16, Energy =  -7450.78807810 au

0 1
  O      4.07864800     -0.10685100      0.24864500
  H      3.76573500      0.08593100     -0.64902200
  H      3.47161900      0.48240500      0.76584600
  O      1.99957700      1.45562400      0.99994100
  H      1.99089300      1.29929200      0.02625900
  H      1.31908200      0.80504900      1.28274800
  O      2.04895900      0.34414800     -1.56121700
  H      1.09746100      0.61439000     -1.60362900
  H      1.97031500     -0.57235400     -1.19990300
  O      1.95090700     -1.99844800     -0.04542700
  H      1.20289000     -1.62858200      0.47191800
  H      2.73258500     -1.50574600      0.28065400
  I     -1.42267200      0.17817800      0.14239100
  O     -0.02771000     -0.40965000      1.25663500
  O     -2.25222500     -1.34259000     -0.44791200
  O     -0.56677700      0.92979100     -1.31586600

