16
Energy =  -7450.74456394 au
  O      6.42527900     -0.06770500     -0.89691800
  H      6.92413400      0.73599700     -1.08271300
  H      6.08141000      0.02989100      0.00679900
  O      2.10712300     -0.51440100      0.08980200
  H      2.11487800      0.43414400      0.31204200
  H      1.19770600     -0.55663300     -0.28222900
  O      4.59257100     -0.39898100      1.10656700
  H      3.77770400     -0.70921200      1.53687400
  H      4.26822100     -0.45272400      0.18775600
  O      0.77848500      2.01455600     -0.20513400
  H      0.18728500      1.81390600      0.55318300
  H      0.48990000      1.30728100     -0.81667000
  I     -1.85914300     -0.33213100      0.06915600
  O     -0.37273000     -0.55322000     -1.03406600
  O     -3.11284000      0.54952000     -0.92989200
  O     -1.23122000      0.84526800      1.35960000
