#B3LYP/6-31+G(d) OPT FREQ

16, Energy =  -7450.77047116 au

0 1
  O      5.23010100      0.56695900      0.77167300
  H      4.45064100      0.10152500      0.38997800
  H      4.80080300      1.04139400      1.49284300
  O     -3.70908300     -0.93977100      0.98599200
  H     -3.56320500     -0.26028800      0.30500500
  H     -2.81725700     -1.32878200      1.02328300
  O      1.09991700     -2.44457500     -0.82012300
  H      0.38558200     -2.28086100     -0.16689000
  H      0.94375300     -1.68335900     -1.41183000
  O      2.74464900     -0.37240200      0.07728100
  H      2.21080600      0.10247400     -0.59377300
  H      2.37273200     -1.27934000     -0.03630900
  I     -0.59911000      0.56231500      0.03612200
  O     -0.79353100     -1.15487800      0.72689100
  O     -2.23559700      0.98718200     -0.68237500
  O      0.53466600      0.33055500     -1.42393600

