#B3LYP/6-31+G(d) OPT FREQ

16, Energy =  -7450.72681323 au

0 1
  O      2.70427600      1.74744100      0.96096700
  H      2.74892400      2.41667100      0.25036600
  H      1.95346800      1.20703500      0.62712900
  O     -2.73461400      2.24285300     -0.51511400
  H     -1.93886900      2.75031500     -0.74287100
  H     -2.88821200      1.76264900     -1.34597000
  O      2.29334700     -1.33756100     -0.72695100
  H      1.92614800     -0.70795400     -1.38669600
  H      1.50283700     -1.37167000     -0.14600200
  O      5.41557000      0.20625200     -0.45946400
  H      4.81149300     -0.36450200      0.04558400
  H      4.90933600      0.28320800     -1.28734400
  I     -1.13424900     -0.31642600      0.28046000
  O     -1.84610500     -0.58919800     -1.40904400
  O      0.23234400      0.92431300      0.03423400
  O     -0.17856200     -1.84474500      0.75555100

