16
Energy =  -7450.78599413 au
  O      0.51341400     -2.37249800      1.08540200
  H      0.43827900     -1.50622000      1.53140100
  H     -0.30748800     -2.35967700      0.55148900
  O      1.88423400      1.95164300      0.61218200
  H      1.54365300      1.70563100     -0.26716800
  H      1.31582900      1.39455700      1.17803300
  O      4.10583300      0.19307800     -0.01685900
  H      3.49422100      0.86829600      0.32794800
  H      3.48084700     -0.45968100     -0.39368600
  O      2.03328700     -1.43836700     -1.09793200
  H      1.40687500     -0.72565100     -1.32233400
  H      1.61216000     -1.85997900     -0.31759600
  I     -1.23653600      0.35939800     -0.08944400
  O     -0.33210800      0.33916700      1.53632800
  O     -1.72985800     -1.39831000     -0.35472600
  O      0.09420500      0.71211800     -1.33283800
