#B3LYP/6-31+G(d) OPT FREQ

16, Energy =  -7450.79277832 au

0 1
  O     -2.36166800     -2.18867900      0.24882600
  H     -1.46194700     -1.87401400      0.51052500
  H     -2.90973000     -1.54213400      0.72253600
  O     -0.60350800      2.64938100      0.32737000
  H     -1.40656000      2.18415100      0.64375900
  H     -0.46744800      2.23856300     -0.54628000
  O     -2.59181200      0.74253300      0.96625300
  H     -2.63738800      0.57278200     -0.00799000
  H     -1.75400200      0.27985000      1.19520900
  O     -2.37098800     -0.11099200     -1.63648200
  H     -1.40927300      0.10378600     -1.68456200
  H     -2.37542400     -0.99574800     -1.21368600
  I      1.13094800      0.04169000      0.12440200
  O      2.20729700     -1.35494000     -0.35883900
  O     -0.25268400     -0.73119700      1.11723600
  O      0.28355200      0.59679000     -1.44096900

