16
Energy =  -7450.74567153 au
  O      0.59067300     -2.89675500     -0.14899300
  H      0.09872400     -2.17894900     -0.60277000
  H      1.44366300     -2.88536800     -0.59769000
  O      3.94594000      1.67883500      0.04363700
  H      3.06831500      1.40461800      0.34443000
  H      4.09084900      0.98317600     -0.61387400
  O      2.22820800     -0.05085500     -1.47517000
  H      2.09863700      0.85392600     -1.78693900
  H      1.29395400     -0.36703000     -1.41156900
  O      2.26414100     -0.99240700      1.71646300
  H      2.24272600     -1.28895900      0.80221400
  H      1.38828200     -0.56804600      1.78767600
  I     -1.17778600      0.49311100     -0.04665000
  O     -2.75113600     -0.32650200      0.36490700
  O     -0.37579700     -0.59900200     -1.35024000
  O     -0.06483900      0.42565200      1.41827000
