16
Energy =  -7450.77937450 au
  O     -4.18141900     -1.40249100      0.46722800
  H     -3.24307400     -1.49179700      0.15543400
  H     -4.58640700     -1.00721100     -0.31845100
  O     -4.14286900      1.41542400      0.07998000
  H     -3.20943300      1.57496500     -0.15210700
  H     -4.09301600      0.57659700      0.57187000
  O     -1.80015600     -1.23571000     -0.75165800
  H     -1.71549700     -0.26230400     -0.67227000
  H     -0.89969300     -1.55282800     -0.51757900
  O     -1.31421700      1.51074000     -0.29092100
  H     -0.55588600      1.51894000     -0.91872300
  H     -0.83446500      1.34579300      0.55294200
  I      1.66494400     -0.05309600      0.10459700
  O      0.90294800     -1.71962200     -0.13890400
  O      0.71286500      0.74250000      1.47927000
  O      1.18477500      0.95315100     -1.37558900
