#B3LYP/6-31+G(d) OPT FREQ

16, Energy =  -7450.74919621 au

0 1
  O     -2.11311800      0.72697200      0.13007000
  H     -1.87462600      0.38353300      1.02267400
  H     -1.23146200      1.08155000     -0.21084000
  O      3.16476500      2.23212100     -0.33417900
  H      3.22315000      1.27101300     -0.20952200
  H      2.19672900      2.29100500     -0.38708000
  O     -4.72870800      1.46176000      0.32465100
  H     -4.91065400      0.74226500      0.93221200
  H     -3.75088700      1.42801000      0.22317100
  O     -3.40270400     -1.50590500     -1.00687100
  H     -3.53909800     -0.56681400     -0.78855600
  H     -2.45306400     -1.55859300     -0.93911200
  I      0.81290400     -0.52549400     -0.03626300
  O      2.67485600     -0.67050000      0.00252600
  O      0.40049900      1.24648200     -0.50447800
  O      0.16141000     -0.64352600      1.67315600

