#B3LYP/6-31+G(d) OPT FREQ

16, Energy =  -7450.79070065 au

0 1
  O      1.69709800      2.06642700      0.84762900
  H      2.06262700      1.77302400     -0.01880100
  H      0.72909600      2.02191100      0.68044500
  O      3.31221700     -1.54154100     -0.30299400
  H      3.02350600     -1.15221000      0.56545200
  H      2.45059500     -1.82605600     -0.64824300
  O      2.40035000      0.77928100     -1.50830800
  H      3.01157500      0.08669200     -1.17359700
  H      1.55069500      0.32267000     -1.32685500
  O      2.00095100     -0.47251600      1.79810500
  H      1.96497200      0.49977500      1.60164000
  H      1.24991300     -0.78603500      1.25765000
  I     -1.33440000     -0.12827800     -0.26952100
  O     -1.96226700     -0.88890100      1.27219400
  O      0.37032500     -0.86365300     -0.51180200
  O     -0.98364900      1.65327400      0.07354200

