#B3LYP/6-31+G(d) OPT FREQ

16, Energy =  -7450.78485196 au

0 1
  O     -2.99419500     -0.51167600     -1.17538500
  H     -2.95228900      0.44263300     -0.95059600
  H     -2.84988700     -0.87844000     -0.28563100
  O     -2.52537700      1.93890900      0.16292200
  H     -1.61437400      1.97907500     -0.20528300
  H     -2.36610900      1.27684200      0.86329400
  O      2.60092900      1.86341200      0.30002300
  H      2.47296000      1.12582600      0.92867700
  H      1.68664400      1.91907200     -0.05686100
  O      2.96898700     -0.45814800     -1.27369700
  H      2.83074300     -0.90224900     -0.42123000
  H      2.95504100      0.47002100     -0.95999300
  I     -0.01807000     -0.53553000      0.04561600
  O      0.04453400      1.23610400     -0.53645700
  O     -1.46380700     -0.52557200      1.20977500
  O      1.46830200     -0.67424100      1.14656600

