#B3LYP/6-31+G(d) OPT FREQ

16, Energy =  -7450.79461219 au

0 1
  O     -2.47850000     -0.85449400     -1.51111400
  H     -1.56805900     -0.49399300     -1.55520700
  H     -2.92626500     -0.20539800     -0.91978900
  O     -3.25502800      0.70404500      0.64390300
  H     -2.54894100      1.38344400      0.55479700
  H     -2.79724200     -0.06591200      1.05013900
  O     -1.15146700      2.44778400      0.10155500
  H     -0.42839600      2.20858100      0.71918800
  H     -0.88990800      1.89483700     -0.66259200
  O     -2.01542800     -1.74959400      1.08300000
  H     -1.03490100     -1.73071500      1.09231200
  H     -2.20189700     -1.72167300      0.11835800
  I      1.32341600     -0.09370600     -0.11526500
  O      0.06531600      0.38153200     -1.40648700
  O      0.73375200     -1.67552400      0.62378600
  O      1.13317800      1.20840900      1.17933400

