16
Energy =  -7450.75268206 au
  O      0.69859200      2.11714500      1.67179200
  H      0.88689100      1.17094900      1.71969100
  H      0.59293700      2.21304600      0.70308900
  O      5.51975600     -1.30539100     -0.08109900
  H      5.49811900     -0.34728700      0.05427600
  H      4.56410200     -1.46189700     -0.02700200
  O      0.31500200      2.44070800     -1.29220300
  H     -0.61206000      2.11359400     -1.32883300
  H      0.77829300      1.60485500     -1.12294800
  O      3.17255300      0.19284300     -0.25835200
  H      3.27860300      0.00465400     -1.20096500
  H      2.22993700     -0.06165300     -0.09727900
  I     -1.31065500     -0.41433600      0.22385800
  O     -1.71642200     -2.02453200     -0.54262400
  O     -2.00419600      0.89909400     -0.87355800
  O      0.54569900     -0.22942200      0.05548400
