#B3LYP/6-31+G(d) OPT FREQ

16, Energy =  -7450.78627863 au

0 1
  O     -2.07569800      0.63801200      1.88986800
  H     -1.11809400      0.83264200      1.79709300
  H     -2.38656900      1.09086000      1.06977100
  O     -2.19011400      1.75516000     -0.61486400
  H     -2.32895700      0.90426300     -1.09175300
  H     -1.23561500      1.74127700     -0.40133000
  O     -2.89243200     -0.78414500     -1.49131900
  H     -3.73861000     -0.73862400     -1.02467300
  H     -2.32624200     -1.23987500     -0.80555100
  O     -1.75767900     -1.81532700      0.68852600
  H     -1.93950100     -1.00480400      1.22491800
  H     -0.77408900     -1.86184700      0.71729800
  I      1.35414000      0.06751500     -0.07856400
  O      0.33441000      1.39921900      0.73537400
  O      0.61595600     -0.12934300     -1.74409000
  O      0.97533800     -1.47634900      0.87127200

