#B3LYP/6-31+G(d) OPT FREQ

16, Energy =  -7450.70322613 au

0 1
  O     -1.09002700     -2.74205900      0.87768900
  H     -1.53223300     -2.71207500      0.01032200
  H     -0.88821300     -3.67507800      1.02931000
  O     -2.33610500     -0.30744600     -0.09320600
  H     -1.57086600     -0.51906700      0.51644000
  H     -1.97487100      0.42345300     -0.59630600
  O     -6.00003700      0.57755000     -0.94105900
  H     -5.20691700      0.24044900     -1.39612700
  H     -6.57005300     -0.19959900     -0.88743500
  O     -1.46340200      1.26939100      2.21592700
  H     -2.12968400      1.00773900      1.55863500
  H     -0.67648800      1.43819700      1.63723600
  I      1.31066900     -0.02454100     -0.16839900
  O      0.18835900      1.48335900      0.05839300
  O      2.88873400      0.30206300      0.73213900
  O      1.69796400      0.07922300     -1.96824600

