16
Energy =  -7450.77943190 au
  O      4.42272000     -1.46204400      0.33576800
  H      3.83984400     -0.67276500      0.38167200
  H      3.83464600     -2.07993700     -0.12058600
  O      0.96670900      0.56841000     -2.19527200
  H      0.42265900     -0.24698700     -2.08306500
  H      0.34950100      1.22983300     -1.82896300
  O      2.34727000      0.37842800      0.16836900
  H      1.95285800      0.41046100     -0.73957900
  H      1.62716900      0.00312900      0.72229500
  O      1.11728800      2.91985100      0.63722200
  H      0.27300900      2.47027000      0.43199100
  H      1.73923000      2.17170500      0.54710400
  I     -1.30748100     -0.34977500      0.23040800
  O     -1.19629600      1.40571500     -0.36720900
  O      0.04320400     -0.56290500      1.47475700
  O     -0.79369700     -1.34091000     -1.24394400
