16
Energy =  -7450.74717661 au
  O      2.75459700      0.97865800     -1.41390100
  H      1.86759900      0.56513200     -1.26921000
  H      2.88538800      0.86670800     -2.36338900
  O      1.77727300      1.98434200      1.38218400
  H      2.14533200      1.72413300      0.52513600
  H      1.07051100      1.33598900      1.56412800
  O     -0.07416900     -3.07768800      0.10549500
  H      0.77356000     -2.59882300      0.03920800
  H     -0.22599600     -3.29840300     -0.82218600
  O      2.47277300     -1.35989600      0.71042300
  H      1.71819400     -0.79891500      0.46999800
  H      2.91940700     -1.38667500     -0.12858300
  I     -1.07059300      0.05512900     -0.06997500
  O      0.47888000     -0.39664300     -1.02631800
  O     -1.55330300      1.71095100     -0.69027200
  O     -0.40762100      0.24390300      1.64408600
