16
Energy =  -7450.77825853 au
  O      1.51044100      2.00212100     -0.87812900
  H      0.84315200      1.96584500     -0.15507400
  H      1.26490000      1.16620600     -1.33691900
  O      2.44217800     -1.46617100      0.50675500
  H      2.04976300     -1.28799500     -0.37019600
  H      2.83894500     -0.59440100      0.71844200
  O      3.65631500      1.05126600      0.42396200
  H      4.13134700      0.68199000     -0.33287600
  H      2.86725300      1.48071200     -0.01359400
  O     -2.96161400      2.09214300      0.30534800
  H     -2.06306600      2.02266800      0.67340300
  H     -3.00216000      1.23612300     -0.15890900
  I     -0.56659400     -0.65859700      0.11625400
  O     -2.26888700     -0.58427100     -0.58046000
  O     -0.31591400      0.99521200      0.93678800
  O      0.57489800     -0.56099000     -1.36248000
