110
Energy = -12865.06062548 au
 Ni      0.30882200     -3.33431000     -2.38089000
 Ni     -1.49937000     -0.15815700     -1.20997000
 Ni      0.75568600     -3.99329000      0.16264900
 Ni     -1.06789000      4.30879000     -0.23988200
 Ni     -1.76905000      2.52732000     -2.17771000
 Ni     -3.54574000      0.41740300      0.62064000
 Ni     -0.98464900     -0.74718500      1.25496000
 Ni     -0.57365400      3.67199000      2.23437000
 Ni      0.24480000     -0.77897600     -3.31116000
 Ni      3.15270000      0.02013660     -0.80974100
 Ni      0.75331700     -1.34910000     -0.61720500
 Ni      2.43221000     -2.01006000     -2.56039000
 Ni      2.96099000      2.49645000     -1.57945000
 Ni      1.68949000     -0.02794620      3.69271000
 Ni      1.23853000      0.56334800      1.10330000
 Ni      2.57157000      0.66436900     -3.25622000
 Ni      0.63725500      3.69394000     -2.18045000
 Ni     -1.93980000     -2.22250000     -2.90263000
 Ni      3.60333000     -0.56993700      1.69773000
 Ni     -1.49547000     -2.90023000     -0.50601400
 Ni      3.48291000      2.04833000      1.01664000
 Ni      0.71137100      1.16678000     -1.36586000
 Ni     -2.01855000      0.47891200     -3.81584000
 Ni     -3.83697000     -1.49643000     -0.94457000
 Ni      1.76063000      2.53287000      2.86221000
 Ni     -0.51682800      1.25952000      3.34711000
 Ni      2.99463000     -2.64117000     -0.10028800
 Ni     -0.88518400     -3.49288000      2.00388000
 Ni     -3.26769000      2.95708000     -0.07316070
 Ni      1.29238000      3.16311000      0.42027100
 Ni     -2.74606000      2.31573000      2.37288000
 Ni     -2.82683000     -0.11094700      3.20920000
 Ni      0.24350200      1.82865000     -3.85601000
 Ni     -1.01345000      1.74625000      0.49009600
 Ni     -3.18816000     -2.11638000      1.47828000
 Ni     -0.51035200     -1.35137000      3.75715000
 Ni     -3.86558000      1.03699000     -1.88473000
 Ni      1.28181000     -2.10725000      1.86999000
  C     -4.91366000     -0.51947100     -2.16949000
  O     -6.18790000     -0.71461400     -2.65540000
  C     -2.26201000      1.65374000      4.06727000
  O     -2.64418000      2.19722000      5.18170000
  C     -2.83281000     -3.89266000      2.06079000
  O     -3.63589000     -4.86822000      2.63409000
  C     -0.95487800     -4.72895000      0.18192000
  O     -1.41236000     -6.03147000      0.08033260
  C     -4.81296000      2.24036000     -0.82874800
  O     -5.95849000      2.80486000     -1.02743000
  C     -2.60044000      4.05074000      1.63197000
  O     -3.29558000      5.02968000      2.13237000
  C      4.01589000     -3.03467000     -2.70782000
  O      4.75636000     -3.64479000     -3.62494000
  C      0.14584000      0.01812350      4.87451000
  O      0.06335920      0.09673780      6.16439000
  C      2.91454000      3.69536000      2.01615000
  O      3.52525000      4.70166000      2.53848000
  C     -0.79188200      3.38568000     -3.56181000
  O     -1.22597000      4.16146000     -4.50920000
  C     -2.70577000     -1.29644000     -4.54497000
  O     -3.45298000     -1.73202000     -5.57246000
  C      5.28379000      1.33749000      1.07540000
  O      6.42505000      1.89147000      1.41602000
  C      3.52526000      4.06448000     -0.44996500
  O      4.35218000      5.04467000     -0.83458900
  C     -4.30218000      1.33039000      2.05309000
  O     -5.52347000      1.59382000      2.38390000
  C      4.13789000      1.16850000     -2.22968000
  O      5.36107000      1.32498000     -2.62582000
  C      2.01714000      2.78221000     -3.58706000
  O      2.55521000      3.47386000     -4.54457000
  C     -0.50670500      0.48087600     -4.91279000
  O     -0.47887400      0.44674000     -6.20785000
  C     -3.47692000     -1.64757000      4.21297000
  O     -4.27838000     -1.78454000      5.23623000
  C      4.72205000     -1.32448000     -0.46709800
  O      5.94678000     -1.48137000     -0.72075500
  C      0.59778800      5.38985000     -0.85296200
  O      0.92286100      6.39533000     -1.59674000
  C     -2.57395000      4.20876000     -1.34301000
  O     -3.13276000      5.29293000     -1.78979000
  C      0.79157100     -4.30813000      2.00608000
  O      1.18456000     -5.36681000      2.63332000
  C      0.27432000      5.26162000      0.79466300
  O      0.23483100      6.27926000      1.59988000
  C      3.15659000      1.37752000      4.07159000
  O      3.77075000      1.63130000      5.23998000
  C     -0.90114600     -3.21307000      4.06984000
  O     -1.11242000     -3.95637000      5.18349000
  C      2.10426000     -2.06453000      4.00536000
  O      2.66324000     -2.82005000      4.96320000
  C      1.59156000     -4.38095000     -1.45637000
  O      1.98800000     -5.56892000     -1.79070000
  C     -1.34479000     -3.96842000     -2.89600000
  O     -1.66024000     -5.03268000     -3.53915000
  C      2.63667000     -0.45819000     -4.80032000
  O      3.41733000     -0.44165500     -5.85811000
  C      4.79709000     -1.38994000      2.98577000
  O      5.85710000     -1.58176000      3.43136000
  C      0.71396600     -2.46893000     -4.08387000
  O      0.83207800     -2.90716000     -5.29251000
  C     -3.35589000      1.76124000     -3.53483000
  O     -4.13638000      2.23007000     -4.45602000
  C      3.53427000     -3.96233000      1.16319000
  O      4.49408000     -4.83458000      1.21943000
  C     -3.53457000     -3.33217000     -1.25087000
  O     -4.42337000     -4.36118000     -1.50428000
  C      0.26289700      3.12542000      3.83584000
  O      0.31464900      3.77438000      4.95803000
  C     -4.71901000     -1.30638000      0.77663200
  O     -5.93436000     -1.55303000      1.15228000
