#B3LYP/6-31+G(d) OPT FREQ

110, Energy = -12368.85510275 au

0 1
 Ni      0.41455300     -3.91010000     -1.85732000
 Ni     -1.35190000     -0.73208900     -1.21944000
 Ni      0.21448700     -4.45370000      0.67303100
 Ni     -0.66111000      3.95405000     -0.61298100
 Ni     -0.98679700      1.74376000     -2.27866000
 Ni     -3.41291000      0.19022200      0.21655400
 Ni     -1.29954000     -1.13500000      1.32533000
 Ni     -0.62530600      3.40572000      2.02448000
 Ni      0.74610600     -1.56442000     -2.85843000
 Ni      2.90858000     -0.87124200      0.02432270
 Ni      0.63807200     -2.01340000     -0.13680400
 Ni      2.62532000     -2.78220000     -1.70607000
 Ni      3.46159000      1.71471000     -0.88518900
 Ni      1.00622000     -0.42839300      4.17360000
 Ni      1.04625000     -0.00283800      1.47273000
 Ni      3.12271000     -0.41794800     -2.63872000
 Ni      1.41158000      2.99317000     -1.98282000
 Ni     -1.78893000     -2.84232000     -2.78611000
 Ni      3.12180000     -1.34732000      2.57600000
 Ni     -1.84052000     -3.35809000     -0.30008700
 Ni      3.58038000      1.18680000      1.66208000
 Ni      0.99852600      0.41681000     -1.12534000
 Ni     -1.35029000     -0.23374300     -3.78761000
 Ni     -3.83781000     -1.73106000     -1.50338000
 Ni      1.43433000      1.99911000      3.15317000
 Ni     -0.93749100      0.85294800      3.15105000
 Ni      2.69155000     -3.30985000      0.96643100
 Ni     -1.65936000     -3.61477000      2.39675000
 Ni     -2.89735000      2.75256000     -0.67896100
 Ni      1.40638000      2.51536000      0.48512400
 Ni     -2.93158000      2.20594000      1.92469000
 Ni     -3.32067000     -0.26961200      2.73919000
 Ni      1.04608000      0.90614200     -3.72879000
 Ni     -0.97046500      1.30368000      0.39380700
 Ni     -3.72837000     -2.24835000      1.14503000
 Ni     -1.38888000     -1.60535000      3.89371000
 Ni     -3.52509000      0.51073700     -2.33947000
 Ni      0.68148900     -2.53909000      2.54431000
  C      5.13924000      2.10146000      0.85097000
  O      6.32997000      2.59842000      1.07744000
  C      1.70730000     -4.62378000      2.61833000
  O      1.53645000     -5.93602000      2.85215000
  C     -1.91413000      3.33847000     -3.00504000
  O     -2.23924000      4.01505000     -4.09592000
  C      4.89434000     -0.85255200     -0.51688700
  O      6.11098000     -1.25642000     -0.40667200
  C     -0.93831500     -4.95229000     -0.86872400
  O     -1.41910000     -6.10445000     -1.21702000
  C     -2.48787000      4.15013000      2.67939000
  O     -3.00930000      5.11269000      3.43574000
  C      2.14187000     -4.50932000     -0.78069300
  O      2.74786000     -5.61899000     -1.06703000
  C      0.26797500      4.90652000     -2.05975000
  O      0.43462200      6.19813000     -2.38410000
  C     -3.30261000      1.51043000      4.00999000
  O     -4.16756000      1.74876000      5.01205000
  C     -3.38585000     -2.22637000      3.19783000
  O     -4.31076000     -2.66495000      3.99746000
  C     -0.78629400     -0.09482680      4.92650000
  O     -1.19092000      0.16668500      6.12428000
  C      3.08724000      3.96502000     -0.33643700
  O      3.66996000      5.14254000     -0.37016200
  C     -3.38311000     -3.93037000     -3.11152000
  O     -3.81581000     -4.45038000     -4.21948000
  C      0.93876600     -3.49248000     -3.91320000
  O      1.25933000     -4.43330000     -4.76927000
  C     -0.06876700      1.83348000     -4.99298000
  O      0.01473180      2.29450000     -6.22598000
  C      2.32243000     -0.27117300     -4.30310000
  O      2.88637000     -0.39189100     -5.46189000
  C     -4.72224000      2.20769000      0.87073000
  O     -5.93043000      2.70429000      1.19507000
  C      1.89109000     -2.49167000      4.43797000
  O      2.60632000     -3.30309000      5.24314000
  C     -0.20961000      2.98994000      4.17246000
  O     -0.32473700      3.66907000      5.38728000
  C     -0.55555300     -3.31083000      3.97010000
  O     -0.37538500     -3.98259000      5.06281000
  C     -5.53786000     -0.47411800     -2.19922000
  O     -6.51206000     -0.94267500     -2.94403000
  C     -3.75850000     -3.47769000     -0.43565900
  O     -4.56347000     -4.47897000     -0.54979600
  C     -3.15694000      0.26991300     -4.41358000
  O     -3.84944000      0.37409000     -5.56534000
  C      2.34173000      3.12530000     -3.75211000
  O      2.90910000      4.07561000     -4.46027000
  C      2.92656000      3.15840000      2.72250000
  O      3.62957000      4.05098000      3.45973000
  C      4.74412000     -2.80758000      1.69835000
  O      5.49313000     -3.82215000      2.03527000
  C      4.44455000      1.50001000     -2.58017000
  O      5.61480000      1.84056000     -3.11001000
  C     -4.80539000     -0.73065500      1.17758000
  O     -6.09304000     -0.62835000      1.12980000
  C      0.48986900      4.85999000      1.42898000
  O      0.72857700      6.10139000      1.86922000
  C      4.78077000     -0.28630800      2.83625000
  O      5.85908000     -0.32576900      3.62578000
  C     -2.24367000     -6.06206000      1.14059000
  O     -2.73848000     -6.77372000      2.09176000
  C      4.05844000     -2.15203000     -3.29298000
  O      5.11122000     -2.74689000     -3.79509000
  C     -2.40296000      4.90917000     -0.16489000
  O     -3.06332000      6.03563000     -0.42357500
  C      2.48002000      0.79493000      4.76795000
  O      2.86960000      1.03509000      6.03184000
  C     -4.55477000      2.21211000     -1.84100000
  O     -5.65286000      2.82694000     -2.33494000
  C     -0.45443700     -1.46464000     -4.95363000
  O     -0.37306300     -1.85467000     -6.22581000

