#B3LYP/6-31+G(d) OPT FREQ

110, Energy = -12218.45345774 au

0 1
 Ni      0.24536300     -3.44156000     -2.57696000
 Ni     -1.39099000     -0.25058300     -1.41973000
 Ni      0.75613500     -4.07982000     -0.11343500
 Ni     -0.71829800      4.17503000     -0.57530900
 Ni     -1.40441000      2.32610000     -2.26402000
 Ni     -3.06945000      0.37354000      0.45523200
 Ni     -0.82278200     -0.85028600      1.01443000
 Ni     -0.12987200      3.52420000      1.92377000
 Ni      0.26529800     -0.96933300     -3.38333000
 Ni      3.13886000     -0.29553200     -1.13879000
 Ni      0.79802600     -1.52116000     -0.88027700
 Ni      2.45839000     -2.18785000     -2.79552000
 Ni      3.11217000      2.23559000     -1.88611000
 Ni      2.02740000     -0.24507200      3.27431000
 Ni      1.42426000      0.36538900      0.77894700
 Ni      2.50026000      0.32605000     -3.60060000
 Ni      0.93861100      3.49325000     -2.40744000
 Ni     -2.11110000     -2.11590000     -3.07341000
 Ni      3.67499000     -0.90046100      1.33156000
 Ni     -1.48118000     -2.74131000     -0.68366100
 Ni      3.75506000      1.62625000      0.55792400
 Ni      0.85704700      0.96335900     -1.65016000
 Ni     -1.99906000      0.34601400     -3.88052000
 Ni     -3.71716000     -1.47976000     -1.27480000
 Ni      2.06035000      2.25893000      2.48009000
 Ni     -0.19835700      1.01595000      2.70726000
 Ni      3.02601000     -2.80227000     -0.37360700
 Ni     -0.88168400     -3.39426000      1.80578000
 Ni     -2.97432000      2.91492000     -0.36359800
 Ni      1.50413000      2.87636000      0.00400071
 Ni     -2.42544000      2.26297000      2.22836000
 Ni     -2.47117000     -0.22249800      2.98657000
 Ni      0.26437400      1.59300000     -4.12138000
 Ni     -0.76208700      1.62510000      0.24420300
 Ni     -3.09069000     -2.10574000      1.27458000
 Ni     -0.26937900     -1.48863000      3.51680000
 Ni     -3.65908000      0.96837000     -1.98007000
 Ni      1.37478000     -2.12795000      1.54982000
  C      3.59561000     -3.53603000      1.83337000
  O      4.49436000     -4.46087000      1.93533000
  C      1.84689000      4.15785000      2.33014000
  O      2.37608000      5.23069000      3.01147000
  C     -4.79125000     -2.74503000      0.32131900
  O     -5.79212000     -3.40750000      0.77940200
  C     -2.75823000      1.71227000      4.50852000
  O     -3.63736000      2.41537000      5.24888000
  C     -0.75569400      4.25821000     -2.96081000
  O     -0.82201800      5.28234000     -3.73401000
  C      0.60379300     -5.13570000      2.07143000
  O      0.79185600     -6.41498000      2.09012000
  C      2.27301000     -4.28721000     -1.43278000
  O      2.80593000     -5.44229000     -1.66198000
  C     -2.54720000      4.74849000     -0.70388400
  O     -3.21112000      5.95053000     -0.77077600
  C      4.21708000     -0.99584000     -4.12246000
  O      4.86606000     -0.95074700     -5.24207000
  C     -3.60492000     -3.18360000     -2.26481000
  O     -4.55310000     -3.90440000     -2.74953000
  C      0.72474300     -3.30905000      3.78078000
  O      0.93107700     -4.10034000      4.79577000
  C     -2.57893000     -3.26404000      3.25811000
  O     -3.07408000     -4.24194000      3.97731000
  C     -3.70213000      2.89347000     -2.27898000
  O     -4.67073000      3.45953000     -2.90829000
  C      4.79741000      1.02794000     -1.62041000
  O      5.95269000      1.37085000     -2.07575000
  C      2.69820000      4.18592000     -1.52425000
  O      3.56212000      5.07407000     -1.87973000
  C     -4.46852000      2.36362000      1.33174000
  O     -5.55741000      3.13407000      1.46592000
  C      0.21076500      2.44642000      4.29668000
  O      0.19794800      3.00200000      5.49725000
  C      4.37025000     -1.99375000     -1.61188000
  O      5.51246000     -2.50314000     -1.91536000
  C     -2.01081000     -4.58565000      0.24633900
  O     -2.55600000     -5.74586000      0.23389300
  C     -3.88127000     -0.37275900     -3.42482000
  O     -4.71908000     -0.40393900     -4.40849000
  C      5.62043000      0.08615220      0.73401200
  O      6.74467000     -0.23810800      1.30357000
  C     -1.33643000     -5.05067000     -2.30414000
  O     -1.24021000     -6.06583000     -3.08629000
  C      0.63014400     -0.31106300      5.16367000
  O      0.99158500     -0.46893000      6.42578000
  C      4.37220000      3.75295000      1.03079000
  O      5.58508000      4.03950000      1.33701000
  C      1.27549000      5.26542000     -0.00283801
  O      1.07512000      6.54094000     -0.06998030
  C     -1.10516000     -2.03077000     -4.98392000
  O     -1.60335000     -2.81921000     -5.90278000
  C      1.37942000     -3.03379000     -4.19254000
  O      1.93448000     -3.73832000     -5.11124000
  C     -1.52342000      2.12349000     -4.47591000
  O     -1.92768000      2.62197000     -5.59856000
  C      0.54835400     -0.02651020     -5.05146000
  O      0.64856800     -0.17348900     -6.32993000
  C     -2.02520000      4.55849000      2.24034000
  O     -2.17947000      5.62078000      2.99404000
  C     -4.40033000     -0.32210900      2.45182000
  O     -5.53999000     -0.37353100      3.17623000
  C     -4.93813000     -0.04858250     -0.73954600
  O     -6.22436000      0.00019077     -0.83689600
  C     -1.81926000     -0.99352500      5.06066000
  O     -2.43727000     -1.27781000      6.17442000
  C      3.43352000     -1.81860000      3.57982000
  O      4.28791000     -2.16594000      4.53713000
  C      3.56832000      1.23616000      3.78187000
  O      4.35280000      1.68483000      4.75877000
  C      2.13543000      2.54472000     -3.90799000
  O      2.57475000      3.12961000     -4.97423000

