110
Energy = -12348.80224909 au
 Ni     -0.26500100     -3.82420000     -2.15117000
 Ni     -1.82049000     -0.63285200     -1.16777000
 Ni      0.11463900     -4.46479000      0.27150000
 Ni     -1.08973000      3.82271000     -0.18591900
 Ni     -1.69836000      1.88999000     -1.96330000
 Ni     -3.78707000      0.04306030      0.62710200
 Ni     -1.43622000     -1.25533000      1.28861000
 Ni     -0.72977800      3.15883000      2.30196000
 Ni     -0.14232300     -1.30764000     -2.99676000
 Ni      2.60421000     -0.76414600     -0.54600100
 Ni      0.29757600     -1.93604000     -0.47956800
 Ni      2.05489000     -2.60673000     -2.30196000
 Ni      2.81788000      1.77384000     -1.31843000
 Ni      1.32161000     -0.77721700      3.73512000
 Ni      0.84212100     -0.08141260      1.22871000
 Ni      2.24236000     -0.06820080     -3.05830000
 Ni      0.62789000      3.08509000     -2.00851000
 Ni     -2.43087000     -2.43605000     -2.89546000
 Ni      3.01885000     -1.42574000      1.99690000
 Ni     -2.02471000     -3.30862000     -0.47033900
 Ni      3.20635000      1.14203000      1.20736000
 Ni      0.46522400      0.54134300     -1.22971000
 Ni     -2.28915000     -0.10176300     -3.68383000
 Ni     -4.12970000     -1.84912000     -1.18903000
 Ni      1.41817000      1.78435000      3.00674000
 Ni     -0.91635700      0.61101800      3.07492000
 Ni      2.44319000     -3.28878000      0.26142400
 Ni     -1.60901000     -3.73761000      2.03533000
 Ni     -3.42824000      2.49946000     -0.18737200
 Ni      0.99257700      2.41408000      0.48907900
 Ni     -3.06955000      1.84029000      2.37296000
 Ni     -3.18471000     -0.55033800      3.10183000
 Ni      0.10452500      1.20614000     -3.73453000
 Ni     -1.27021000      1.22488000      0.54407500
 Ni     -3.75228000     -2.47633000      1.34561000
 Ni     -1.04052000     -1.94603000      3.74896000
 Ni     -3.97942000      0.67993500     -1.86383000
 Ni      0.73331000     -2.66946000      2.08317000
  C      0.16681400      2.46746000      4.37133000
  O      0.22284500      3.07471000      5.54872000
  C     -2.97702000      4.48752000      0.04619960
  O     -3.74391000      5.57985000      0.00563536
  C     -3.41417000      2.60256000     -2.55445000
  O     -4.11634000      3.37212000     -3.30621000
  C     -2.22514000      0.65009200      4.50462000
  O     -2.60633000      0.89850700      5.70688000
  C     -4.55923000      0.57876700      2.36562000
  O     -5.70040000      0.63282700      2.98475000
  C     -0.62233800      3.67253000     -3.37899000
  O     -0.79827100      4.65096000     -4.22551000
  C     -0.99842100     -5.20993000     -1.14465000
  O     -1.06576000     -6.49730000     -1.26625000
  C     -5.01992000      1.41158000     -0.19626500
  O     -6.21206000      1.91398000     -0.13682900
  C     -0.03518280      4.97559000      2.17581000
  O     -0.13050100      6.02663000      2.92178000
  C     -3.06581000     -2.67199000      3.37392000
  O     -3.88119000     -3.10712000      4.28573000
  C      1.67218000     -4.83290000      1.44877000
  O      2.09002000     -6.13661000      1.64382000
  C      0.51066000     -3.54997000     -4.10354000
  O      0.46928800     -4.70814000     -4.73907000
  C      4.57232000      2.15255000      0.01604730
  O      5.77455000      2.70800000      0.08913480
  C     -3.46866000     -3.69258000     -1.61793000
  O     -4.11845000     -4.60197000     -2.27517000
  C      0.00932607     -1.26501000      5.40164000
  O     -0.04708140     -1.95159000      6.54590000
  C      3.99880000      1.23387000     -2.87524000
  O      5.01446000      1.58990000     -3.57699000
  C      2.96122000     -4.24360000     -1.44945000
  O      3.70086000     -5.22520000     -2.00461000
  C     -3.12977000     -4.23013000      0.80786800
  O     -3.77574000     -5.31916000      1.09785000
  C     -2.83950000      3.86723000      2.88457000
  O     -3.63699000      4.49948000      3.71672000
  C      0.74933300     -0.97677400     -4.84306000
  O      0.89374800     -1.32655000     -6.09878000
  C      2.45928000      0.42429600      4.76241000
  O      2.96750000      0.45186600      5.97707000
  C      2.35054000     -2.56622000      3.46524000
  O      2.92651000     -3.33760000      4.32039000
  C      2.50712000      4.27606000      0.69453700
  O      3.06970000      5.41551000      0.90308100
  C     -1.65499000      1.35543000     -4.90802000
  O     -2.10535000      1.65844000     -6.12905000
  C      0.10171400      5.22937000     -0.94414900
  O     -0.06824730      6.48980000     -1.07761000
  C     -4.35848000     -0.94902500     -3.00644000
  O     -5.49901000     -0.85667000     -3.62276000
  C     -2.05424000     -1.72110000     -4.60256000
  O     -2.60590000     -2.30451000     -5.61914000
  C     -5.11711000     -1.42795000      0.61523100
  O     -6.33184000     -1.87358000      0.46858900
  C      4.18453000     -2.84572000      1.05797000
  O      5.24148000     -3.63117000      1.31986000
  C      4.49874000     -0.02616570      2.37300000
  O      5.66372000     -0.04896420      2.95577000
  C      2.52903000      3.79003000     -2.22153000
  O      3.16941000      4.78948000     -2.81906000
  C      1.73814000      1.84964000     -4.55379000
  O      2.06954000      2.25541000     -5.78518000
  C     -0.24217300     -4.03048000      3.41074000
  O     -0.37846300     -5.15717000      4.02982000
  C      4.85443000     -0.81853000     -0.89375700
  O      6.06578000     -1.12958000     -1.14134000
  C      3.17677000      2.72533000      2.97288000
  O      3.93740000      3.39743000      3.81256000
  C      3.40913000     -1.75126000     -3.59556000
  O      4.24940000     -2.15066000     -4.56298000
