110
Energy = -12597.17179058 au
 Ni      0.04501200     -3.88816000     -2.51108000
 Ni     -1.27421000     -0.66320000     -1.54434000
 Ni      0.53906400     -4.49928000     -0.03299500
 Ni     -0.40100300      3.92712000     -0.39817200
 Ni     -1.14640000      1.88110000     -2.35499000
 Ni     -3.01526000      0.13611900      0.25449000
 Ni     -0.94373300     -1.27103000      0.96593500
 Ni     -0.07771810      3.26281000      1.99750000
 Ni      0.43199600     -1.62455000     -3.58355000
 Ni      3.47253000     -0.88266100     -0.86404200
 Ni      0.77427100     -2.01452000     -0.81955400
 Ni      2.59893000     -2.73829000     -2.50352000
 Ni      3.51382000      1.54703000     -1.62466000
 Ni      1.82527000     -0.76858600      3.47007000
 Ni      1.41627000     -0.17009800      0.91601500
 Ni      2.89719000     -0.27236900     -3.38649000
 Ni      1.27326000      2.95971000     -2.35413000
 Ni     -2.02150000     -2.53709000     -3.32668000
 Ni      3.58334000     -1.47904000      1.74796000
 Ni     -1.73475000     -3.28754000     -0.72109600
 Ni      3.81090000      0.94038300      1.04663000
 Ni      1.06854000      0.43673300     -1.57161000
 Ni     -1.78921000      0.01195990     -4.09952000
 Ni     -3.65486000     -1.68855000     -1.54596000
 Ni      2.17763000      1.65644000      2.74894000
 Ni     -0.35573800      0.60242900      2.75778000
 Ni      2.91670000     -3.39542000     -0.03848740
 Ni     -1.23098000     -3.79102000      1.68259000
 Ni     -2.77851000      2.66251000     -0.41434800
 Ni      1.73316000      2.40841000      0.19615500
 Ni     -2.44612000      2.02563000      2.08026000
 Ni     -2.74199000     -0.62782500      2.86539000
 Ni      0.69937600      1.05184000     -4.13935000
 Ni     -0.65705600      1.24265000      0.19988900
 Ni     -3.30823000     -2.39004000      1.02467000
 Ni     -0.63998600     -1.84750000      3.60225000
 Ni     -3.40202000      0.72335800     -2.31094000
 Ni      1.13244000     -2.69355000      1.68578000
  C      1.94663000     -4.59189000     -1.54994000
  O      2.46310000     -5.71609000     -1.94076000
  C     -3.11117000     -4.35493000      1.35761000
  O     -3.87762000     -5.31918000      1.79642000
  C      2.67193000      1.13318000     -4.75141000
  O      3.24351000      1.32005000     -5.98002000
  C     -5.09635000     -0.32585800     -1.95524000
  O     -6.33634000     -0.40060300     -2.51042000
  C      0.17418900      4.70776000     -2.37273000
  O      0.34942400      5.90530000     -2.94722000
  C      1.32515000      1.21772000      4.67073000
  O      1.52736000      1.62268000      5.92464000
  C      4.70038000      0.27530100     -2.31973000
  O      5.86999000      0.29843000     -2.91475000
  C      0.44046700      4.16493000      4.02774000
  O      0.31491500      5.33272000      4.55167000
  C      3.87760000     -3.53823000      1.93931000
  O      4.91635000     -4.31453000      2.30263000
  C     -2.01781000      1.77064000      4.05673000
  O     -2.38669000      2.21312000      5.25343000
  C      2.05001000     -2.63768000      4.07659000
  O      2.49827000     -3.31176000      5.11822000
  C     -3.12485000     -1.29852000     -4.18494000
  O     -3.85279000     -1.58026000     -5.21398000
  C     -3.39110000     -2.20445000      3.93238000
  O     -4.23400000     -2.40956000      4.89332000
  C     -0.68780400     -3.52744000     -4.21012000
  O     -0.74226100     -4.47921000     -5.08535000
  C     -0.33757200      2.68252000     -4.44690000
  O     -0.68421800      3.35307000     -5.55083000
  C      3.62613000     -0.00266896      3.23278000
  O      4.56578000      0.03949570      4.12728000
  C      4.59857000      2.52594000      0.09065750
  O      5.79707000      3.13761000      0.18218700
  C     -2.94541000      3.89408000      1.65047000
  O     -3.72650000      4.80528000      2.22098000
  C      4.13908000     -2.61631000     -1.27870000
  O      5.31306000     -3.04355000     -1.63444000
  C     -0.98407500      5.39252000      0.95002100
  O     -1.08237000      6.67891000      0.89947400
  C     -2.91649000      1.49800000     -3.93817000
  O     -3.67893000      2.08870000     -4.79531000
  C     -4.63783000      2.09777000     -0.55897900
  O     -5.83037000      2.69038000     -0.56267300
  C     -0.45598700     -0.66757600      5.19701000
  O     -0.76329400     -0.86503600      6.44561000
  C      1.91503000      4.41858000      0.37293000
  O      2.71805000      5.45727000      0.49444200
  C     -0.64306900     -3.93586000      3.81174000
  O     -0.89481200     -4.83098000      4.77085000
  C     -4.23557000      1.00092000      2.36206000
  O     -5.46085000      1.30629000      2.89640000
  C      1.35676000     -4.72283000      2.30372000
  O      1.60714000     -6.00679000      2.24607000
  C     -5.08003000     -1.41452000      0.56512300
  O     -6.30408000     -1.72971000      0.96308600
  C      4.85966000     -0.58776200      0.68588500
  O      6.14891000     -0.68168800      0.79079900
  C     -3.24866000     -3.49572000     -1.82640000
  O     -4.08389000     -4.47307000     -1.99323000
  C      2.28465000     -1.95678000     -4.20035000
  O      2.74385000     -2.52072000     -5.27608000
  C     -2.51849000      3.94122000     -1.88306000
  O     -3.20191000      4.94490000     -2.44860000
  C      3.32052000      3.27495000     -2.67001000
  O      4.11910000      4.14021000     -3.28203000
  C      3.45730000      3.10384000      2.59882000
  O      4.13904000      3.80335000      3.45520000
  C     -0.15839600     -0.46134700     -4.99275000
  O     -0.09576480     -0.79908700     -6.24724000
  C     -1.01790000     -5.01698000     -0.93526400
  O     -1.54010000     -6.20150000     -0.99950900
