#B3LYP/6-31+G(d) OPT FREQ

110, Energy = -12492.17489055 au

0 1
 Ni     -0.76755600     -3.63122000     -1.74684000
 Ni     -1.53142000     -0.17489000     -0.62606500
 Ni     -0.26327000     -4.37766000      0.76832100
 Ni      0.18271400      4.04997000      0.27863800
 Ni     -0.93953500      2.27473000     -1.42739000
 Ni     -3.05360000      0.94234800      1.29881000
 Ni     -1.12924000     -0.87538000      1.81437000
 Ni      0.62390600      3.22590000      2.75113000
 Ni     -0.07706080     -1.17750000     -2.61333000
 Ni      2.81233000     -1.22388000     -0.31467500
 Ni      0.31349600     -1.89738000     -0.06861710
 Ni      1.84494000     -2.99494000     -2.05633000
 Ni      3.50512000      1.18479000     -1.14149000
 Ni      1.84866000     -0.91065700      4.08352000
 Ni      1.33915000     -0.19611900      1.59328000
 Ni      2.42832000     -0.49644400     -2.87433000
 Ni      1.60649000      3.02861000     -1.71573000
 Ni     -2.62462000     -1.96356000     -2.30717000
 Ni      3.18546000     -1.80944000      2.26321000
 Ni     -2.23100000     -2.62436000      0.09532160
 Ni      3.87865000      0.48297100      1.48659000
 Ni      0.93764800      0.50754700     -0.85631100
 Ni     -1.96635000      0.46248100     -3.20276000
 Ni     -4.02611000     -0.89673200     -0.45147100
 Ni      2.45927000      1.47896000      3.34197000
 Ni     -0.16600500      0.89284500      3.79369000
 Ni      2.21133000     -3.67562000      0.54495200
 Ni     -1.70094000     -3.26505000      2.68600000
 Ni     -2.47433000      3.26919000      0.56169400
 Ni      2.02816000      2.30589000      0.87730900
 Ni     -2.01743000      2.54926000      2.99155000
 Ni     -2.59011000      0.14140900      3.71652000
 Ni      0.57941500      1.26399000     -3.46717000
 Ni     -0.50424000      1.52188000      1.03066000
 Ni     -3.59321000     -1.50594000      2.06853000
 Ni     -0.69714500     -1.62304000      4.27802000
 Ni     -3.46154000      1.58871000     -1.26112000
 Ni      0.84238800     -2.86839000      2.53313000
  C     -1.84776000      4.93640000     -0.37326600
  O     -2.37924000      6.16398000     -0.37219400
  C     -4.92887000     -2.58063000      0.77603100
  O     -6.02026000     -3.06217000      1.38752000
  C      0.17825600      1.98002000     -5.14038000
  O      0.35007900      2.43264000     -6.31263000
  C     -0.31300500     -3.54061000      3.86279000
  O     -0.16150200     -4.34942000      4.86406000
  C     -1.29946000      3.71406000     -3.00744000
  O     -1.71799000      4.71356000     -3.63395000
  C     -3.40802000      1.78729000     -3.56218000
  O     -4.19447000      2.13320000     -4.57493000
  C     -1.08226000     -3.32672000     -3.72045000
  O     -1.33346000     -4.15897000     -4.73419000
  C      4.93767000     -1.46381000      1.01491000
  O      6.13712000     -1.97071000      1.40008000
  C     -1.29681000     -0.52280800     -4.76110000
  O     -1.59839000     -0.75058000     -6.02195000
  C      0.41671400     -0.40422800      5.19665000
  O      0.42055100     -0.40309200      6.49687000
  C      2.45367000     -2.84314000      3.61209000
  O      3.11965000     -3.73531000      4.27704000
  C     -2.50296000     -4.79682000      1.10722000
  O     -3.02871000     -5.71075000      1.95711000
  C     -4.09897000     -1.18211000     -3.31082000
  O     -4.99100000     -1.65747000     -4.14196000
  C     -0.44938100     -5.47553000     -0.91215200
  O     -0.63851400     -6.76341000     -1.27243000
  C      1.64494000     -4.63511000     -3.17248000
  O      2.27405000     -5.50766000     -3.84995000
  C     -3.42883000      3.36757000      2.13295000
  O     -4.32408000      4.16230000      2.60119000
  C      4.00642000     -3.97294000     -0.50408500
  O      4.69317000     -5.05765000     -0.34914800
  C     -4.44445000      3.17393000     -0.79057600
  O     -5.55793000      3.80245000     -1.12262000
  C     -3.16838000     -3.49473000     -1.29054000
  O     -4.02232000     -4.45114000     -1.43652000
  C      3.72451000      3.31280000     -0.71900400
  O      4.71919000      4.19468000     -0.88824000
  C      5.26385000      0.34109300     -0.88828800
  O      6.47667000      0.55961300     -1.29770000
  C     -2.83890000     -1.93690000      4.04775000
  O     -3.57737000     -2.27939000      5.05808000
  C      3.43280000      0.03431300      4.03363000
  O      4.22839000      0.04589510      5.05660000
  C      1.63214000     -1.27782000     -4.50176000
  O      1.99255000     -1.65751000     -5.70958000
  C      1.71714000      3.98971000     -3.30925000
  O      2.19577000      5.02765000     -3.89065000
  C      4.02474000     -1.76256000     -2.45479000
  O      5.09905000     -2.26207000     -3.07275000
  C      2.42849000      3.61251000      2.31723000
  O      3.22490000      4.55799000      2.68214000
  C     -5.39517000      0.35905100     -0.99480200
  O     -6.69872000      0.19173800     -1.24668000
  C      1.29266000     -4.75426000      1.77085000
  O      1.47731000     -5.96420000      2.20058000
  C     -2.06178000      1.63997000      4.65824000
  O     -2.47412000      2.06167000      5.80839000
  C      3.28454000      1.31463000     -3.56055000
  O      4.14067000      1.60790000     -4.54361000
  C     -0.83535200      4.57992000      2.73320000
  O     -0.89006100      5.69641000      3.49624000
  C      1.01444000      2.25380000      4.36944000
  O      1.13852000      2.74900000      5.56488000
  C      1.55744000      5.29121000     -0.25596900
  O      1.63782000      6.58943000     -0.24501000
  C      4.73278000      2.01112000      2.31679000
  O      5.99035000      2.22653000      2.65409000
  C     -4.59537000      0.49005800      2.32297000
  O     -5.75217000      0.83831900      2.76303000

