110
Energy = -12815.18876863 au
 Ni     -0.47825900     -3.06109000     -2.29244000
 Ni     -1.35125000      0.23188400     -0.72934000
 Ni      0.30102300     -4.03846000      0.08093710
 Ni      0.16740400      4.47003000      0.29767300
 Ni     -1.04752000      2.86667000     -1.40188000
 Ni     -2.51650000      0.96377600      1.49154000
 Ni     -0.48242500     -0.64458400      1.55936000
 Ni      1.00955000      3.52460000      2.41241000
 Ni     -0.22282700     -0.53726900     -2.92031000
 Ni      3.41993000     -0.63098600     -1.37649000
 Ni      0.68798300     -1.41611000     -0.61254300
 Ni      1.93107000     -2.15630000     -2.89767000
 Ni      3.50823000      2.02322000     -1.83019000
 Ni      2.86004000     -0.57174900      3.33536000
 Ni      1.87799000      0.21977100      0.99900700
 Ni      2.28142000      0.36934000     -3.53953000
 Ni      1.37698000      3.61584000     -1.97430000
 Ni     -2.62652000     -1.43126000     -2.38808000
 Ni      4.01765000     -1.33539000      1.04035000
 Ni     -1.79293000     -2.34871000     -0.07875920
 Ni      4.32765000      1.11306000      0.53782800
 Ni      1.06489000      1.09745000     -1.27519000
 Ni     -2.29466000      1.07077000     -3.02086000
 Ni     -3.86363000     -0.67005700     -0.23131300
 Ni      3.12957000      1.81038000      2.56513000
 Ni      0.84334300      1.10441000      3.61023000
 Ni      2.67056000     -3.15005000     -0.44946800
 Ni     -0.98067900     -3.14047000      2.33639000
 Ni     -2.13829000      3.52286000      0.76585400
 Ni      2.48464000      3.02451000      0.42424800
 Ni     -1.29822000      2.74063000      3.12105000
 Ni     -1.73483000      0.02527500      3.77513000
 Ni      0.28002600      1.95671000     -3.58849000
 Ni     -0.11251700      1.86345000      0.89999100
 Ni     -2.88882000     -1.53282000      2.19124000
 Ni      0.34850500     -1.55488000      3.95747000
 Ni     -3.40927000      2.04165000     -0.92029500
 Ni      1.62008000     -2.53572000      1.85426000
  C     -3.49430000     -3.34008000      2.12965000
  O     -4.47496000     -4.02599000      2.70127000
  C     -2.84765000      3.91286000     -0.92461800
  O     -3.47041000      4.98931000     -1.28140000
  C      1.90762000      4.66423000      1.24836000
  O      2.48758000      5.74358000      1.70015000
  C      4.78353000      0.04887960      2.10428000
  O      5.98617000     -0.04319560      2.59027000
  C      3.40384000     -2.84339000      2.10278000
  O      4.16560000     -3.71562000      2.68263000
  C      2.10578000     -1.73626000      4.73001000
  O      2.59878000     -2.09890000      5.96280000
  C     -1.53556000     -2.22793000      4.12047000
  O     -1.89320000     -2.83258000      5.20853000
  C      0.60722100      3.93278000     -3.78504000
  O      0.76335300      4.89721000     -4.72937000
  C      4.15003000      2.82230000      1.35271000
  O      5.13843000      3.62276000      1.62990000
  C      3.18993000      3.75606000     -1.19391000
  O      3.92372000      4.82442000     -1.33389000
  C     -2.79707000      2.10279000      4.11342000
  O     -3.51248000      2.73907000      5.07539000
  C     -3.91305000     -0.22155800      3.48981000
  O     -4.91287000     -0.22764700      4.39189000
  C      0.75274500     -2.06698000     -4.47108000
  O      0.77820900     -2.43323000     -5.76671000
  C     -2.33641000     -0.08853560     -4.57126000
  O     -2.88241000     -0.10547200     -5.78164000
  C     -3.35017000     -3.35190000     -0.93182200
  O     -4.11695000     -4.42808000     -0.95947200
  C     -4.73046000      1.53269000     -2.16433000
  O     -5.88735000      2.03198000     -2.54665000
  C      2.28119000     -4.04116000     -2.53016000
  O      2.90269000     -4.96080000     -3.30500000
  C     -1.91746000     -2.96790000     -3.66492000
  O     -2.41914000     -3.76771000     -4.63397000
  C      0.01555600      5.34128000     -1.63056000
  O      0.03309930      6.68850000     -1.57983000
  C     -5.41698000     -0.72048100      0.83114900
  O     -6.67881000     -0.92642600      0.77000700
  C     -2.09035000      2.92593000     -3.65838000
  O     -2.67570000      3.73949000     -4.55088000
  C     -1.26897000     -4.81534000      1.18977000
  O     -1.62559000     -6.09807000      1.49251000
  C      0.71139000      0.80734300     -5.12192000
  O      0.83084700      1.05260000     -6.45019000
  C      4.80970000      0.79567700     -1.25244000
  O      6.06675000      0.77379700     -1.59222000
  C     -4.25272000      2.32941000      1.14485000
  O     -5.40082000      2.78516000      1.67384000
  C      4.41745000     -2.14096000     -0.60263200
  O      5.50149000     -2.76111000     -0.98284600
  C      0.36254700      2.94674000      4.11738000
  O      0.56820500      3.66813000      5.18157000
  C      3.44064000     -1.10124000     -3.42921000
  O      4.37205000     -1.41061000     -4.27741000
  C     -0.48760100     -4.95714000     -1.66386000
  O     -0.60156200     -6.18534000     -2.20724000
  C      2.84034000      1.10315000      4.30589000
  O      3.51039000      1.58301000      5.31209000
  C     -0.15791200      0.22398400      4.95333000
  O     -0.24808600      0.50947400      6.21831000
  C     -4.51126000     -1.09364000     -2.49881000
  O     -5.58242000     -1.51403000     -3.19556000
  C      3.20698000      2.04150000     -3.74114000
  O      3.99541000      2.50091000     -4.67180000
  C     -1.21956000      4.55873000      2.04780000
  O     -1.70907000      5.67130000      2.50426000
  C      0.74552000     -3.63264000      3.11416000
  O      1.01688000     -4.69540000      3.80620000
  C      2.08004000     -4.75469000      0.28032500
  O      2.54861000     -5.99360000      0.34955000
