110
Energy = -12620.15084580 au
 Ni     -2.83115000     -2.91016000     -0.99121900
 Ni     -1.76770000      0.70657300     -0.07113040
 Ni     -1.09344000     -3.73185000      0.82515100
 Ni      1.14051000      4.27104000     -1.09382000
 Ni     -1.18030000      3.06774000     -1.56703000
 Ni     -1.71503000      2.31589000      2.44067000
 Ni     -0.11026800     -0.21343900      1.66815000
 Ni      2.75640000      3.21214000      0.68579000
 Ni     -2.15704000     -0.67691100     -2.32160000
 Ni      1.45924000     -1.55245000     -2.38714000
 Ni     -0.47378600     -1.53947000     -0.55055400
 Ni     -0.82982100     -2.72878000     -2.90172000
 Ni      1.93687000      0.72286100     -3.79306000
 Ni      3.51773000     -1.16519000      1.56041000
 Ni      1.81552000     -0.23063800     -0.17506600
 Ni     -0.30795100     -0.51549700     -4.17491000
 Ni      0.64344300      2.94114000     -3.40117000
 Ni     -4.12877000     -0.53267900     -0.46876500
 Ni      3.23432000     -2.44511000     -0.79506100
 Ni     -2.51242000     -1.45165000      1.32660000
 Ni      3.84582000     -0.29692900     -2.15390000
 Ni      0.10126800      0.67603100     -1.90460000
 Ni     -3.43390000      1.60069000     -1.88698000
 Ni     -3.72588000      0.67683500      1.87074000
 Ni      4.08210000      1.01744000      0.15810100
 Ni      2.11499000      1.07234000      2.15726000
 Ni      0.88450900     -3.80668000     -1.06157000
 Ni     -0.61216400     -2.41564000      3.12107000
 Ni     -0.82928800      4.25929000      0.76828500
 Ni      2.51935000      2.07080000     -1.69339000
 Ni      0.80113900      3.34013000      2.70832000
 Ni      0.28241500      1.05815000      4.02526000
 Ni     -1.59577000      1.57955000     -3.65014000
 Ni      0.46966700      1.97739000      0.30917000
 Ni     -1.90558000     -0.17626400      3.57813000
 Ni      1.60648000     -1.17400000      3.47154000
 Ni     -3.13980000      2.87381000      0.35766200
 Ni      1.23830000     -2.50085000      1.19895000
  C     -2.64548000      4.69924000     -0.37472900
  O     -3.42373000      5.80696000     -0.63412300
  C     -0.96838400      4.09308000      2.63996000
  O     -1.43322000      5.01348000      3.42377000
  C      4.13900000     -2.03741000      3.12957000
  O      5.24812000     -2.45491000      3.65674000
  C      2.63505000      4.25968000      2.30180000
  O      3.31633000      5.32115000      2.81436000
  C      3.06266000     -3.98123000      0.42831300
  O      3.79493000     -5.04171000      0.80780800
  C     -4.97582000      1.84462000     -0.68552600
  O     -6.22733000      2.31903000     -1.00993000
  C      0.69454300     -3.29273000     -3.91035000
  O      1.04467000     -3.97516000     -5.00156000
  C      2.53411000      2.53973000     -3.56755000
  O      3.36972000      3.19522000     -4.30799000
  C      4.70652000     -1.07585000     -0.23181100
  O      5.96651000     -1.42408000     -0.23454100
  C     -1.83476000     -1.41761000     -4.94591000
  O     -2.17812000     -1.50642000     -6.21974000
  C      0.01704970      1.74227000     -4.82403000
  O     -0.04242550      2.16047000     -6.04574000
  C      0.18852500     -4.86491000      1.65830000
  O      0.37590300     -6.11506000      2.01189000
  C     -3.90719000      0.16356500     -3.36097000
  O     -4.78290000     -0.09421180     -4.35495000
  C      1.26219000      2.67839000      4.51137000
  O      1.61037000      3.31418000      5.67777000
  C      4.91914000      0.74989300     -3.39724000
  O      5.99121000      0.51603500     -4.06757000
  C     -3.60167000     -3.14057000      1.32609000
  O     -4.66802000     -3.67361000      1.96073000
  C     -2.92513000      3.08564000     -3.25508000
  O     -3.59413000      3.98490000     -4.03539000
  C     -1.99592000     -3.51871000      3.73261000
  O     -2.24718000     -4.38449000      4.65335000
  C      1.46388000     -3.24117000      3.73456000
  O      1.95645000     -4.16837000      4.56843000
  C      2.43525000      0.07994440      4.69838000
  O      3.12823000      0.07765340      5.83721000
  C      4.27350000      1.25727000      2.32762000
  O      5.18324000      1.70687000      3.22782000
  C     -3.70350000      2.56948000      2.11634000
  O     -4.61792000      3.22314000      2.75634000
  C     -0.10746800      4.36755000     -2.53159000
  O     -0.48041300      5.45928000     -3.12170000
  C      3.62957000      3.79422000     -1.03834000
  O      3.68699000      4.98936000     -1.58572000
  C      0.54733900      5.60492000      0.25239100
  O      0.49396100      6.97447000      0.21888600
  C     -1.58299000      1.62156000      4.21892000
  O     -2.09256000      2.20579000      5.25491000
  C      0.80550200     -5.67256000     -1.19302000
  O      1.04379000     -6.71069000     -1.93657000
  C     -3.78163000     -0.67134600      3.72172000
  O     -4.59408000     -0.88685100      4.78064000
  C      3.67198000     -2.86413000     -2.74316000
  O      4.36023000     -3.75897000     -3.42313000
  C     -2.56748000     -3.58498000     -3.01085000
  O     -3.22016000     -4.37549000     -3.89940000
  C      4.87994000      2.71210000     -0.67331400
  O      6.15377000      2.84678000     -0.73381900
  C     -2.44409000     -4.87106000     -0.54128900
  O     -3.05336000     -6.04557000     -0.64789200
  C     -0.38405000     -0.85502200      4.71253000
  O     -0.49961200     -1.07687000      5.98475000
  C     -4.98913000     -0.23888900      1.06395000
  O     -6.22230000     -0.34404100      1.35998000
  C     -4.78656000     -2.11614000     -1.39021000
  O     -6.00645000     -2.59937000     -1.72587000
  C      1.83242000     -0.82414800     -4.96763000
  O      2.40280000     -1.19682000     -6.13636000
