110
Energy = -12422.47020316 au
 Ni      0.60577300     -3.44876000     -2.63454000
 Ni     -1.00704000     -0.19487900     -1.53941000
 Ni      0.61009800     -4.33082000     -0.24710600
 Ni     -0.19894600      4.11354000     -0.15474500
 Ni     -0.63627500      2.39422000     -2.15047000
 Ni     -3.03091000      0.45215100      0.01864110
 Ni     -1.02521000     -1.04336000      0.89743600
 Ni     -0.18885700      3.18895000      2.34392000
 Ni      0.97148000     -0.90141400     -3.32155000
 Ni      3.23140000     -0.63618600     -0.33939900
 Ni      0.89585300     -1.70421000     -0.69041300
 Ni      2.80911000     -2.47651000     -2.19551000
 Ni      3.65252000      1.83245000     -0.79540000
 Ni      1.33899000     -0.83645900      3.74992000
 Ni      1.31255000     -0.01334840      1.25600000
 Ni      3.27205000      0.18818300     -2.85570000
 Ni      1.76459000      3.40771000     -1.68422000
 Ni     -1.45388000     -1.98257000     -3.51566000
 Ni      3.19914000     -1.61377000      2.17997000
 Ni     -1.57691000     -2.88530000     -1.13040000
 Ni      3.73166000      0.99876100      1.74666000
 Ni      1.31777000      0.82690400     -1.19342000
 Ni     -0.97352600      0.71320300     -4.06395000
 Ni     -3.43578000     -1.29951000     -1.94810000
 Ni      1.79324000      1.77623000      3.28190000
 Ni     -0.64178600      0.63531100      2.90558000
 Ni      2.80386000     -3.18771000      0.26210800
 Ni     -1.48166000     -3.68087000      1.46372000
 Ni     -2.53156000      3.02669000     -0.50024200
 Ni      1.69319000      2.52857000      0.78654500
 Ni     -2.60496000      2.10545000      2.00367000
 Ni     -3.01196000     -0.38841900      2.57242000
 Ni      1.37662000      1.61078000     -3.70569000
 Ni     -0.61126300      1.48998000      0.39345800
 Ni     -3.40767000     -2.20039000      0.53865900
 Ni     -1.16156000     -1.91677000      3.42456000
 Ni     -2.95051000      1.37791000     -2.52536000
 Ni      0.93519100     -2.66231000      1.79031000
  C      4.80362000     -2.04682000      1.10797000
  O      6.04245000     -2.43160000      1.51023000
  C     -4.52184000     -1.60065000      2.61274000
  O     -5.55021000     -1.83506000      3.39408000
  C      1.77806000      5.26758000     -0.99828900
  O      2.15164000      6.40128000     -1.55213000
  C      3.21776000      0.12381300     -4.86446000
  O      4.31252000      0.15127800     -5.58763000
  C      0.80160300      0.99832800      5.07011000
  O      0.86009400      1.21482000      6.38578000
  C     -4.10228000      2.99304000     -1.85527000
  O     -5.08046000      3.82031000     -2.25279000
  C      0.10295500     -2.95127000     -4.62838000
  O     -0.25654900     -3.51846000     -5.73637000
  C     -2.63918000     -4.06223000      0.03621980
  O     -3.25564000     -5.17973000     -0.17367000
  C      1.07062000      3.57751000     -3.94118000
  O      1.32470000      4.25911000     -5.07119000
  C      2.52122000     -3.60186000      2.24757000
  O      2.88233000     -4.60849000      2.97496000
  C      0.38647100     -2.85758000      4.35586000
  O      0.44414300     -3.59172000      5.49253000
  C      2.34894000      3.89161000      3.45510000
  O      2.78448000      4.48095000      4.51808000
  C     -5.08166000     -2.01452000     -0.48630800
  O     -6.28330000     -2.58233000     -0.41067100
  C      4.74155000     -1.62339000     -1.78211000
  O      5.92860000     -2.20268000     -2.03248000
  C     -4.83441000      0.13523700     -2.44022000
  O     -5.98707000      0.15045800     -3.10977000
  C     -1.79943000      2.38553000     -3.82756000
  O     -2.16028000      3.25163000     -4.71656000
  C      3.63712000      3.48851000      0.72932200
  O      4.37267000      4.55754000      1.05840000
  C      3.84410000      2.57969000     -2.77663000
  O      4.88293000      3.33430000     -3.24495000
  C     -4.69053000      1.24837000      0.70153100
  O     -5.98580000      1.44888000      0.71675900
  C      0.69005300      0.28752000     -4.91611000
  O      0.87337300      0.10068700     -6.18448000
  C     -2.66697000     -3.46457000      3.36637000
  O     -3.18045000     -4.48038000      4.04312000
  C     -1.04835000      3.02204000      4.04654000
  O     -1.31035000      3.82555000      5.05275000
  C     -2.75588000      4.20394000      1.14613000
  O     -3.55414000      5.24365000      1.47754000
  C     -1.40147000      4.74488000     -1.83371000
  O     -1.65928000      5.98951000     -2.24606000
  C     -2.99787000     -2.89170000     -2.84714000
  O     -3.81606000     -3.72252000     -3.40343000
  C     -0.53516500     -5.31032000     -1.67931000
  O     -0.43616400     -6.41227000     -2.43690000
  C      0.39697800      5.19605000      1.49309000
  O      0.41433400      6.46285000      1.89775000
  C     -0.23852000     -5.23961000      1.92668000
  O     -0.17785000     -6.55683000      1.94054000
  C      4.50137000      0.99060900      3.71142000
  O      5.68466000      1.37742000      4.03843000
  C      3.20324000     -1.31133000      4.35638000
  O      3.89766000     -1.59206000      5.45669000
  C      1.83249000     -2.91268000     -3.94981000
  O      2.64559000     -3.57596000     -4.69984000
  C     -2.02064000     -0.34937500      4.75364000
  O     -2.45514000     -0.30708800      6.01059000
  C      2.48734000     -4.42198000     -1.15729000
  O      3.22232000     -5.48519000     -1.23353000
  C     -2.77577000     -0.39252800     -4.52593000
  O     -3.32988000     -0.42920500     -5.77159000
  C      5.35753000      0.55138300      0.04027100
  O      6.61346000      0.83543900     -0.30345600
  C     -3.62967000      1.70948000      3.60840000
  O     -4.58182000      2.25153000      4.34632000
