110
Energy = -12126.43898292 au
 Ni     -0.00492982     -3.32209000     -2.35125000
 Ni     -1.36742000      0.16691700     -1.19295000
 Ni      0.61598600     -3.90834000      0.12004000
 Ni     -0.32725000      4.58766000     -0.48663800
 Ni     -1.26858000      2.78199000     -2.12009000
 Ni     -2.93986000      0.97086800      0.70513300
 Ni     -0.75233400     -0.39722000      1.24476000
 Ni      0.24099700      4.04806000      1.95826000
 Ni      0.07333540     -0.67271000     -3.28443000
 Ni      3.25421000     -0.08702900     -1.04535000
 Ni      0.77283200     -1.20263000     -0.68289700
 Ni      2.29318000     -2.05557000     -2.66939000
 Ni      3.28423000      2.36081000     -1.82936000
 Ni      2.29503000      0.11827600      3.48653000
 Ni      1.56578000      0.69484500      0.90012700
 Ni      2.42804000      0.49349700     -3.50176000
 Ni      1.02250000      3.70084000     -2.41956000
 Ni     -2.27131000     -1.75116000     -2.94510000
 Ni      3.92653000     -0.73244600      1.49557000
 Ni     -1.65282000     -2.44245000     -0.37868400
 Ni      3.91199000      1.84672000      0.58269900
 Ni      0.94388400      1.25313000     -1.53885000
 Ni     -1.98094000      0.70055400     -3.64222000
 Ni     -3.89007000     -1.08403000     -0.90431200
 Ni      2.39599000      2.62518000      2.40038000
 Ni     -0.01314750      1.50970000      2.84908000
 Ni      2.92200000     -2.62972000     -0.08349740
 Ni     -0.90647900     -2.97405000      2.24856000
 Ni     -2.65065000      3.38570000     -0.03610820
 Ni      1.94529000      3.50658000      0.01013560
 Ni     -2.12011000      2.88740000      2.39943000
 Ni     -2.37172000      0.24283300      3.29826000
 Ni      0.28562100      1.89939000     -4.07121000
 Ni     -0.56647200      2.06818000      0.38225300
 Ni     -3.24716000     -1.56383000      1.65330000
 Ni     -0.21797800     -1.11329000      3.76209000
 Ni     -3.66089000      1.50187000     -1.68770000
 Ni      1.46931000     -1.85527000      1.86608000
  C     -0.44083600      4.16691000      3.78461000
  O     -0.59487900      5.18899000      4.61429000
  C     -2.82595000     -1.39669000      4.26454000
  O     -3.66880000     -1.77935000      5.21322000
  C     -5.05586000     -2.08544000      0.71548700
  O     -6.31833000     -2.39892000      0.95489200
  C      1.88359000     -4.17852000     -2.81764000
  O      2.24901000     -5.10505000     -3.71382000
  C     -2.45035000      1.96972000      4.41029000
  O     -3.02292000      2.32716000      5.56867000
  C     -1.51202000     -3.47552000     -3.91836000
  O     -1.98684000     -4.42822000     -4.71922000
  C     -4.57756000     -0.91054000     -2.86289000
  O     -5.67630000     -1.38922000     -3.43462000
  C      3.88745000     -2.16654000     -1.60090000
  O      5.65900000     -3.20768000     -2.29907000
  C     -0.59929300     -5.05604000     -1.37011000
  O     -0.60657300     -6.38353000     -1.53177000
  C     -0.19588200     -3.09324000      4.35413000
  O     -0.30615600     -3.74122000      5.50729000
  C     -3.93072000      3.55877000      1.99180000
  O     -4.65127000      4.59596000      2.40698000
  C      3.93915000      3.35630000     -0.43677700
  O      4.88524000      4.23567000     -0.55849300
  C     -3.07657000      3.99368000     -1.76585000
  O     -3.83247000      5.10748000     -2.07181000
  C      0.99447800     -1.62144000     -4.72643000
  O      1.04673000     -1.97999000     -5.99866000
  C      4.80873000      1.32427000      2.37986000
  O      5.98607000      1.73512000      2.88015000
  C      0.51486800      1.03071000     -5.83449000
  O      0.65235200      1.68751000     -6.94067000
  C      2.50346000      4.28925000      1.59753000
  O      2.99686000      5.45441000      1.89221000
  C      2.01204000      2.29424000      4.42866000
  O      2.54576000      2.97591000      5.44941000
  C      2.58804000      3.02156000     -3.97016000
  O      3.45270000      3.68326000     -4.79892000
  C      0.12684300     -4.85093000      1.92840000
  O      0.08197480     -6.08921000      2.42605000
  C      5.29338000     -1.98430000      1.53927000
  O      6.48474000     -2.26097000      1.89683000
  C     -3.16698000     -3.48694000     -1.02332000
  O     -3.81441000     -4.63654000     -1.10495000
  C     -4.40874000      0.63354300      2.28984000
  O     -5.64099000      0.95426300      2.71487000
  C     -3.28915000      2.37269000     -3.85101000
  O     -4.12435000      2.82403000     -4.78571000
  C      3.89818000     -0.70778600     -3.97620000
  O      4.65692000     -0.79365700     -5.05427000
  C      3.36667000     -0.79938600      4.70275000
  O      4.13219000     -0.86683400      5.72743000
  C      5.06840000      0.27767800     -1.39979000
  O      6.33980000      0.46301700     -1.53379000
  C     -0.59938900      3.76438000     -3.56425000
  O     -1.07958000      4.75507000     -4.25269000
  C      2.60033000     -4.71204000      0.35930400
  O      3.28609000     -5.84325000      0.25607900
  C      1.40245000      5.02374000     -1.14139000
  O      2.04439000      6.10753000     -1.50266000
  C     -2.06099000     -0.86115800     -4.63691000
  O     -2.44958000     -1.06351000     -5.85627000
  C     -2.87472000     -3.65983000      2.05646000
  O     -3.58608000     -4.65128000      2.62026000
  C     -5.43898000      1.07337000     -0.82858600
  O     -6.62189000      1.57157000     -1.05554000
  C     -1.31873000      5.57673000      1.27337000
  O     -1.28457000      6.89563000      1.05190000
  C      0.12804200      0.27668000      5.12420000
  O      0.09190760      0.36086300      6.44672000
  C      2.52566000     -3.15436000      2.72621000
  O      3.06679000     -3.91877000      3.59452000
