#B3LYP/6-31+G(d) OPT FREQ

110, Energy = -12633.13394700 au

0 1
 Ni      2.58456000     -1.78356000     -2.50913000
 Ni     -0.72981200     -1.00549000     -0.65436600
 Ni      3.91455000     -1.36431000     -0.15915300
 Ni     -3.70770000      2.26673000      0.71889400
 Ni     -2.84812000      0.41887300     -1.13390000
 Ni     -1.85348000     -1.76031000      1.62029000
 Ni      0.57575600     -0.64470200      1.55713000
 Ni     -2.32871000      2.70701000      2.83076000
 Ni      0.32148000     -0.31085000     -3.03444000
 Ni      2.05817000      2.76215000     -1.30388000
 Ni      1.64073000      0.05012940     -0.71289300
 Ni      2.77666000      0.75727400     -3.01331000
 Ni     -0.10595700      4.08490000     -1.82140000
 Ni      2.19025000      2.31886000      3.13268000
 Ni      0.85121500      1.86745000      0.98908000
 Ni      0.53271400      2.31015000     -3.55671000
 Ni     -2.54809000      2.94672000     -1.69134000
 Ni      0.13665000     -2.93403000     -2.46181000
 Ni      3.20295000      2.95702000      0.95486400
 Ni      1.46405000     -2.60037000     -0.13655300
 Ni      1.12216000      4.49371000      0.50234100
 Ni     -0.44863800      1.52837000     -1.21028000
 Ni     -2.15767000     -1.29247000     -2.92963000
 Ni     -1.03496000     -3.62997000     -0.12501700
 Ni     -0.00722797      3.69572000      2.78747000
 Ni     -0.25306000      1.20665000      3.34240000
 Ni      3.97659000      0.99017400     -0.86837700
 Ni      2.85388000     -2.10613000      2.12630000
 Ni     -3.99663000     -0.19108700      1.18330000
 Ni     -1.20860000      3.56517000      0.46813700
 Ni     -2.65327000      0.21822600      3.28546000
 Ni     -0.51329000     -1.40992000      3.86083000
 Ni     -1.75067000      1.24449000     -3.45533000
 Ni     -1.52762000      0.82844200      1.05633000
 Ni      0.29003600     -3.29210000      2.15691000
 Ni      1.92303000     -0.30334400      3.81473000
 Ni     -3.19700000     -2.06348000     -0.60300100
 Ni      3.33509000      0.48156400      1.66144000
  C      1.64550000      3.67576000     -2.89964000
  O      2.32918000      4.57416000     -3.53557000
  C     -4.11770000     -1.14909000      3.21739000
  O     -5.18102000     -1.39756000      4.01246000
  C      1.11141000     -1.56341000      5.10644000
  O      1.36513000     -1.94627000      6.38397000
  C      3.96837000      2.39930000      2.55481000
  O      5.00873000      2.93718000      3.10034000
  C      2.83892000      4.35775000     -0.24040900
  O      3.63700000      5.36495000     -0.40608600
  C      4.32562000     -1.33402000     -1.98771000
  O      5.44949000     -1.76354000     -2.46417000
  C     -2.92048000     -3.60166000      1.56038000
  O     -3.69184000     -4.44041000      2.20398000
  C      0.60841800      1.73010000     -5.34333000
  O      0.77402900      2.32498000     -6.47871000
  C     -2.78353000     -3.98704000     -1.28720000
  O     -3.55237000     -5.05653000     -1.55502000
  C      1.73475000      4.42602000      2.35772000
  O      2.09536000      5.49761000      2.99817000
  C      2.37647000     -4.23342000     -0.53545200
  O      3.04267000     -5.32808000     -0.44786000
  C      1.54454000      1.35906000      5.07667000
  O      2.16583000      2.02887000      6.10467000
  C     -1.15959000     -3.42581000      3.73579000
  O     -1.40158000     -4.24441000      4.78685000
  C      2.01412000     -3.83616000      2.98714000
  O      2.48063000     -4.88694000      3.70238000
  C      3.64990000     -0.70117300      3.20327000
  O      4.70316000     -0.75655600      3.97201000
  C      0.69214800     -1.32892000     -4.61752000
  O      0.77808600     -1.46680000     -5.90561000
  C      4.43832000      2.39569000     -2.18119000
  O      5.60654000      2.94030000     -2.55834000
  C     -0.99641100      2.79083000      4.17705000
  O     -1.14702000      3.20673000      5.39821000
  C     -2.08048000      0.21159500     -5.01920000
  O     -2.72933000      0.36619300     -6.14551000
  C     -1.43456000     -0.12602300      5.23149000
  O     -2.00762000     -0.18976200      6.45160000
  C      3.58279000      0.22684900     -4.61730000
  O      4.41693000      0.43137100     -5.56285000
  C     -1.53335000     -2.83690000     -3.97761000
  O     -2.01419000     -3.58019000     -4.98146000
  C      2.29452000     -3.38232000     -3.62267000
  O      2.95122000     -4.18036000     -4.42191000
  C     -0.12274200      5.43899000     -0.52233400
  O     -0.22903700      6.70973000     -0.69561000
  C      4.39213000     -2.61647000      1.16951000
  O      5.49236000     -3.33725000      1.44160000
  C     -1.47417000      3.54311000     -3.21754000
  O     -1.90892000      4.43733000     -4.05284000
  C     -1.68335000      4.37160000      2.17224000
  O     -2.17637000      5.54623000      2.43042000
  C     -0.19485700     -5.06177000      1.16018000
  O     -0.32177700     -6.36679000      1.40880000
  C     -5.19114000      1.05884000      0.06096940
  O     -6.47590000      1.41376000      0.15562300
  C     -5.15982000     -1.61905000      0.23912500
  O     -6.38798000     -2.12444000      0.26735600
  C      4.92626000      0.25961600      0.54953000
  O      6.19537000      0.42958500      0.80142000
  C     -4.03047000      1.85568000     -2.72423000
  O     -5.18805000      2.15113000     -3.33222000
  C     -0.00137499     -4.88360000     -1.96421000
  O     -0.03551310     -6.02602000     -2.60664000
  C     -4.02697000      1.89026000      2.68064000
  O     -5.01031000      2.33827000      3.40043000
  C     -4.25474000     -1.27408000     -2.63531000
  O     -5.32881000     -1.53927000     -3.36497000
  C     -3.50191000      4.28483000     -0.04757630
  O     -4.31650000      5.30067000     -0.43685400

