#B3LYP/6-31+G(d) OPT FREQ

110, Energy = -11855.95222854 au

0 1
 Ni      4.46347000      0.69297100     -1.23134000
 Ni      1.20215000     -1.03120000     -1.51869000
 Ni      4.30123000      0.68706500      1.33534000
 Ni     -3.31742000     -0.48350000     -1.95096000
 Ni     -0.90814200     -0.76231400     -2.98472000
 Ni      0.09642510     -3.00955000     -0.32322000
 Ni      0.98498100     -1.02511000      1.02946000
 Ni     -3.48059000     -0.49407300      0.62448300
 Ni      2.31879000      0.94851500     -2.71953000
 Ni      0.88980300      3.20651000     -0.28238600
 Ni      2.11460000      0.95372600     -0.15986100
 Ni      3.21830000      2.96629000     -1.38777000
 Ni     -1.22889000      3.50894000     -1.77379000
 Ni     -0.44162700      1.25939000      3.49995000
 Ni     -0.21449000      1.23170000      0.91229000
 Ni      1.10287000      3.23520000     -2.86864000
 Ni     -2.13878000      1.49692000     -3.13544000
 Ni      3.54703000     -1.31717000     -2.62382000
 Ni      0.67253300      3.25544000      2.29037000
 Ni      3.31087000     -1.28929000     -0.04693260
 Ni     -1.44667000      3.52385000      0.81194000
 Ni      0.00251452      1.22579000     -1.63616000
 Ni      1.42648000     -1.05651000     -4.10490000
 Ni      2.43623000     -3.31496000     -1.41930000
 Ni     -2.55801000      1.52110000      2.01982000
 Ni     -1.32414000     -0.74679400      2.10392000
 Ni      3.02629000      2.95222000      1.19484000
 Ni      3.11968000     -1.29363000      2.52707000
 Ni     -2.04145000     -2.75479000     -1.80224000
 Ni     -2.32068000      1.49209000     -0.56152800
 Ni     -2.23431000     -2.77161000      0.77477700
 Ni     -0.11531200     -3.03955000      2.25898000
 Ni      0.20571900      1.22441000     -4.22103000
 Ni     -1.12691000     -0.75307700     -0.44662200
 Ni      2.21201000     -3.30423000      1.16669000
 Ni      0.78353600     -1.02321000      3.61543000
 Ni      0.31384000     -3.05251000     -2.89883000
 Ni      1.89404000      0.96190800      2.37446000
  C     -0.51561100     -5.03437000      0.53753500
  O     -0.55989000     -6.30028000      0.65253000
  C     -0.19442800     -0.07232070      5.41807000
  O     -0.38863100      0.10940200      6.68496000
  C      2.36971000     -2.80273000     -3.62509000
  O      3.02348000     -3.51764000     -4.48514000
  C     -0.45972900     -1.79468000     -4.74346000
  O     -0.55770100     -2.21981000     -5.95148000
  C     -3.48726000      0.22739500     -3.86122000
  O     -4.35273000      0.31478100     -4.81905000
  C      2.61851000     -1.09490000      4.55088000
  O      3.24738000     -1.38762000      5.70396000
  C      2.92413000      2.78975000     -3.57123000
  O      3.49210000      3.58091000     -4.41239000
  C     -0.84920300      3.88379000     -3.81642000
  O     -0.63496600      5.00827000     -4.52645000
  C      2.26058000      5.10747000      2.40975000
  O      3.44072000      5.52773000      2.69241000
  C     -1.48434000      5.60030000     -0.17581700
  O     -1.84019000      6.71380000     -0.64379800
  C      4.43054000     -2.52610000     -1.14235000
  O      5.56483000     -3.06799000     -1.42108000
  C      3.72227000      1.26035000      3.45352000
  O      4.87607000      1.51681000      3.99864000
  C     -3.47741000      3.60950000      1.21557000
  O     -4.25368000      4.62342000      1.50631000
  C     -1.65015000      1.17391000     -5.50997000
  O     -1.81001000      1.55833000     -6.73133000
  C      1.50516000     -4.30233000      3.05571000
  O      2.14575000     -5.38167000      3.43668000
  C      2.30852000     -5.09171000     -0.11198700
  O      3.07377000     -6.07363000     -0.60000000
  C      4.47932000     -2.80629000      1.61583000
  O      5.46734000     -3.20740000      2.44414000
  C     -0.19256100     -2.85303000      4.30881000
  O     -0.23999900     -3.55323000      5.45360000
  C     -2.88320000     -2.81616000     -3.82082000
  O     -3.60838000     -3.58963000     -4.51625000
  C     -3.43609000      3.61054000     -2.31711000
  O     -4.14731000      4.22980000     -3.19396000
  C     -0.33584400      5.14711000      2.14854000
  O     -0.33569800      6.20562000      2.89519000
  C     -0.33335700     -5.02263000     -2.38043000
  O     -0.30512600     -5.94938000     -3.28111000
  C      5.74739000     -0.33685500     -0.11330900
  O      6.88967000      0.05810380      0.36695000
  C     -3.05908000     -4.01551000     -0.58336400
  O     -3.86065000     -5.04435000     -0.73187100
  C     -1.97073000      2.66398000      4.07476000
  O     -2.52367000      3.31792000      5.04639000
  C     -4.77248000      1.51348000     -0.58701800
  O     -5.95468000      1.90397000     -0.77075000
  C      4.43527000      0.39823700     -3.36401000
  O      5.63806000      0.35954900     -3.81204000
  C      1.32247000      2.35386000      4.44287000
  O      1.71189000      3.13182000      5.43106000
  C     -4.53470000      0.96593200      2.33336000
  O     -5.60094000      1.30735000      2.98940000
  C      2.51218000      0.66255100     -4.95010000
  O      2.78403000      0.65962400     -6.21515000
  C     -2.39040000     -3.75663000      2.55234000
  O     -2.97278000     -4.74124000      3.18176000
  C     -5.05790000     -1.60813000     -1.32657000
  O     -6.22177000     -1.82120000     -1.80759000
  C     -2.83591000     -0.97470700      4.09731000
  O     -3.57695000     -1.20027000      5.12480000
  C      1.81408000      4.91095000     -0.93056600
  O      2.19177000      6.17903000     -1.07429000
  C      5.27533000      2.47360000     -0.00466667
  O      5.88190000      3.43608000     -0.64920200
  C     -4.65022000     -1.96359000      1.51245000
  O     -5.79914000     -2.38154000      1.88765000

