#B3LYP/6-31+G(d) OPT FREQ

110, Energy = -12479.32484672 au

0 1
 Ni      0.16682500     -3.40798000     -2.06434000
 Ni     -1.44565000     -0.11033200     -0.92713700
 Ni      0.46441700     -4.02189000      0.51148800
 Ni     -0.67393200      4.27716000      0.13848700
 Ni     -1.36319000      2.39025000     -1.68511000
 Ni     -3.55271000      0.59798800      0.84077100
 Ni     -1.06778000     -0.72780200      1.54827000
 Ni     -0.38090000      3.66577000      2.46942000
 Ni      0.30012900     -0.82886200     -2.78025000
 Ni      3.03822000     -0.23943700     -0.33653500
 Ni      0.67975500     -1.42417000     -0.25466000
 Ni      2.49844000     -2.11564000     -2.12655000
 Ni      3.23844000      2.31525000     -1.14043000
 Ni      1.55713000     -0.12737400      4.04711000
 Ni      1.21546000      0.44499100      1.45699000
 Ni      2.68795000      0.38744800     -2.91484000
 Ni      1.01957000      3.58789000     -1.73972000
 Ni     -1.94658000     -2.03723000     -2.75440000
 Ni      3.49080000     -0.80486400      2.14932000
 Ni     -1.60945000     -2.63789000     -0.16786800
 Ni      3.53267000      1.56426000      1.39588000
 Ni      0.84689000      1.06500000     -1.00313000
 Ni     -1.91920000      0.49189000     -3.47553000
 Ni     -3.90785000     -1.20529000     -0.90413000
 Ni      1.67826000      2.38949000      3.23157000
 Ni     -0.63330400      1.19323000      3.59358000
 Ni      2.81820000     -2.73788000      0.37486500
 Ni     -1.19386000     -3.24590000      2.46716000
 Ni     -3.08989000      3.07758000      0.10875800
 Ni      1.36906000      3.05323000      0.76922400
 Ni     -2.75372000      2.39321000      2.57307000
 Ni     -2.91636000     -0.09937360      3.40967000
 Ni      0.43420800      1.68134000     -3.50995000
 Ni     -0.90744200      1.75547000      0.78802200
 Ni     -3.38006000     -1.89790000      1.80957000
 Ni     -0.75830100     -1.44200000      4.10835000
 Ni     -3.71504000      1.21850000     -1.65634000
 Ni      1.02614000     -2.10034000      2.34835000
  C     -4.01905000     -2.07215000     -2.83530000
  O     -4.96769000     -2.66370000     -3.58140000
  C      0.87158100      4.74043000      1.76518000
  O      1.37539000      5.85263000      2.14354000
  C     -2.54224000     -1.74095000      4.09687000
  O     -3.16881000     -2.17609000      5.13393000
  C     -3.60473000      3.28921000     -1.70456000
  O     -4.58328000      3.78163000     -2.39583000
  C      3.03583000      1.66680000      4.51025000
  O      3.68313000      2.27736000      5.49828000
  C      3.62711000      3.58889000      1.13993000
  O      4.48868000      4.53629000      1.56113000
  C     -3.05795000     -4.11553000      2.10585000
  O     -3.55472000     -5.10985000      2.84811000
  C     -3.72959000      0.75671400     -4.15095000
  O     -4.31014000      0.90708900     -5.31250000
  C     -0.08010630      0.48513800     -5.07258000
  O     -0.02484060      0.61177500     -6.39910000
  C      2.34206000     -3.80350000      2.23983000
  O      2.89776000     -4.76019000      3.03029000
  C      4.37012000     -2.18367000     -2.18262000
  O      5.26266000     -2.79390000     -2.86968000
  C     -1.16924000      3.23453000     -3.61663000
  O     -1.63972000      4.18191000     -4.43097000
  C      4.18220000      3.62599000     -2.00354000
  O      5.27954000      4.19733000     -2.34490000
  C      0.05772350     -0.08044420      5.05930000
  O      0.03540540      0.10886700      6.33611000
  C     -2.19826000      4.21624000      1.89886000
  O     -2.75317000      5.25491000      2.44807000
  C     -2.55163000      4.82268000     -1.40854000
  O     -2.44483000      6.16919000     -1.28155000
  C      4.67043000     -2.21824000      0.89041400
  O      5.81919000     -2.85725000      1.17370000
  C     -0.05659040     -3.10615000      3.90332000
  O      0.20309000     -3.91134000      4.87321000
  C     -4.25803000      2.41792000      1.30725000
  O     -5.47024000      2.82467000      1.44905000
  C      1.78543000     -1.99232000     -4.11011000
  O      2.05658000     -2.44821000     -5.33582000
  C      3.09789000     -1.52771000      4.12534000
  O      3.83320000     -1.82510000      5.21870000
  C     -4.41337000     -2.90951000      0.09750130
  O     -5.56414000     -3.58916000      0.21318700
  C     -5.01090000      0.14942500     -1.02517000
  O     -6.27039000      0.19261700     -1.23199000
  C      4.80075000      0.49552200     -0.92891300
  O      6.11712000      0.34526700     -1.09051000
  C     -4.38411000     -0.46384700      2.22561000
  O     -5.63320000     -0.42440900      2.54120000
  C     -0.00409238      2.91925000      4.08425000
  O     -0.20790000      3.46096000      5.24213000
  C      1.44014000      5.32352000     -0.72118500
  O      1.81255000      6.42701000     -1.36517000
  C     -0.54838800     -5.52209000      1.15063000
  O     -0.32555100     -6.79955000      1.22420000
  C      0.77793500     -4.82510000     -3.00493000
  O      0.73850500     -5.88850000     -3.69685000
  C      3.85663000      0.74351500     -4.23968000
  O      4.64755000      0.76122300     -5.24610000
  C     -2.06811000     -4.24674000     -1.44107000
  O     -2.74447000     -5.38625000     -1.59227000
  C     -2.84710000      1.55324000      4.18364000
  O     -3.45778000      1.98201000      5.22600000
  C     -1.21677000     -2.20440000     -4.48844000
  O     -1.50917000     -2.83801000     -5.61040000
  C      2.45549000     -4.40688000     -0.83556800
  O      3.21491000     -5.51960000     -0.95823100
  C      1.83556000      3.12450000     -3.80252000
  O      2.16655000      3.86376000     -4.87606000
  C      4.82854000      0.53140900      2.27964000
  O      6.00142000      0.67970600      2.77687000

