#B3LYP/6-31+G(d) OPT FREQ

110, Energy = -11749.51417897 au

0 1
 Ni     -1.84939000     -3.39946000     -1.03185000
 Ni     -1.78548000      0.15954600     -0.01221700
 Ni      0.01806720     -3.97022000      0.64874800
 Ni      0.02798030      4.27874000     -0.83261100
 Ni     -1.82353000      2.43316000     -1.23619000
 Ni     -1.67725000      1.38863000      2.22833000
 Ni      0.09764270     -0.35903600      1.64024000
 Ni      1.87658000      3.71127000      0.83289100
 Ni     -1.88837000     -1.07850000     -2.25034000
 Ni      1.71092000     -1.09002000     -2.43457000
 Ni     -0.01554210     -1.61381000     -0.60019000
 Ni     -0.11284700     -2.84180000     -2.90046000
 Ni      1.67561000      1.19039000     -3.68910000
 Ni      3.74986000     -0.37578200      1.47855000
 Ni      1.82268000      0.14593900     -0.18120700
 Ni     -0.16393700     -0.56850600     -4.13157000
 Ni     -0.11047900      2.97585000     -3.08042000
 Ni     -3.66667000     -1.58947000     -0.43494200
 Ni      3.63583000     -1.61896000     -0.78571100
 Ni     -1.73593000     -2.11653000      1.21177000
 Ni      3.59197000      0.66979500     -2.01446000
 Ni     -0.05915170      0.66434700     -1.83361000
 Ni     -3.71533000      0.68525900     -1.65869000
 Ni     -3.56529000     -0.36135000      1.81497000
 Ni      3.69895000      1.90494000      0.25444600
 Ni      1.93533000      1.38666000      2.06288000
 Ni      1.75774000     -3.38889000     -1.20114000
 Ni      0.13996000     -2.66551000      2.89388000
 Ni     -1.70441000      3.70222000      1.01054000
 Ni      1.77651000      2.42908000     -1.39869000
 Ni      0.15898000      3.16329000      2.68954000
 Ni      0.21350400      0.86183900      3.93636000
 Ni     -1.95707000      1.20490000     -3.51315000
 Ni      0.05426700      1.92075000      0.40723800
 Ni     -1.64324000     -0.89730200      3.50084000
 Ni      1.99444000     -0.89695600      3.32225000
 Ni     -3.61305000      1.91548000      0.58747600
 Ni      1.85977000     -2.12190000      1.04178000
  C      1.03206000     -0.87838200      5.04916000
  O      1.46236000     -1.18494000      6.28648000
  C     -3.96998000      2.84869000     -1.93913000
  O     -5.02879000      3.51720000     -2.40697000
  C     -1.29768000      2.95976000     -4.71113000
  O     -2.02629000      3.48256000     -5.70622000
  C     -4.15778000     -0.57932300     -3.38205000
  O     -5.37106000     -0.37811200     -3.90202000
  C     -2.50876000     -1.14086000     -4.71580000
  O     -2.68988000     -1.21081000     -6.03063000
  C     -2.18582000      3.23677000      3.35341000
  O     -2.84813000      4.12048000      4.12443000
  C     -5.19194000     -0.06283630      0.21070100
  O     -6.48383000     -0.28920000      0.22132400
  C      2.07939000      3.61334000     -3.40709000
  O      2.44504000      4.24790000     -4.52518000
  C     -0.03568980      5.03527000      1.62077000
  O      0.11432400      6.22995000      2.07974000
  C      0.60559000      0.52300200     -5.64368000
  O      0.96619300      0.91877400     -6.81020000
  C     -1.16255000      5.20580000     -2.11890000
  O     -1.25786000      6.18672000     -3.01141000
  C      3.50236000      3.41210000      2.02962000
  O      4.17188000      4.55777000      2.34574000
  C      0.68264200     -4.94712000     -2.45647000
  O      1.08036000     -6.12513000     -3.07545000
  C      5.30475000     -0.48495200     -0.82674100
  O      6.56613000     -0.86787200     -1.18343000
  C     -2.59516000      5.05009000     -0.72371400
  O     -3.21236000      6.10348000     -0.11212800
  C      4.07030000     -1.73642000      2.88641000
  O      5.20553000     -2.09774000      3.48311000
  C     -2.19817000     -3.78059000     -3.27474000
  O     -2.54955000     -4.55555000     -4.31613000
  C     -1.69022000     -5.23932000     -0.00053450
  O     -2.36140000     -6.34691000     -0.38834200
  C      1.75311000     -5.10621000      0.81557100
  O      1.78380000     -6.42270000      0.91324200
  C      2.13551000      4.80433000     -0.92964200
  O      2.52705000      6.00851000     -1.15633000
  C      4.36720000      2.76558000     -1.69908000
  O      5.51952000      3.38086000     -2.02655000
  C     -1.16544000     -4.36692000      2.49971000
  O     -1.51167000     -5.48908000      3.18555000
  C     -4.06603000     -3.36030000     -1.78372000
  O     -5.29620000     -3.87234000     -1.95353000
  C     -1.71895000      0.98436100      4.97254000
  O     -1.87927000      1.10755000      6.31120000
  C     -3.97341000      0.33257600      3.92977000
  O     -5.08971000      0.21957000      4.55242000
  C      1.18630000      2.75060000      4.57060000
  O      1.32541000      3.75837000      5.47609000
  C      5.09243000      1.17457000      1.43384000
  O      6.37995000      1.50799000      1.70807000
  C     -5.37154000      3.13807000      1.98921000
  O     -6.56731000      3.61651000      2.02868000
  C      3.82411000     -3.44478000      0.42573000
  O      4.81842000     -4.38536000      0.45513500
  C      1.20164000     -2.28526000     -4.45584000
  O      1.42478000     -2.75092000     -5.63649000
  C      3.65503000      0.03994350     -4.28665000
  O      4.77651000      0.22433700     -5.12999000
  C      3.09854000      1.06795000      3.80035000
  O      3.90848000      1.38872000      4.79905000
  C     -1.79538000     -2.77306000      4.74465000
  O     -2.15082000     -3.12842000      5.91623000
  C      1.94831000     -3.47084000      3.35242000
  O      2.32334000     -4.39629000      4.29955000
  C     -3.86266000     -2.87619000      1.85026000
  O     -4.84977000     -3.56041000      2.31007000
  C      3.44274000     -2.76670000     -2.72087000
  O      4.32234000     -3.49350000     -3.41488000

