#B3LYP/6-31+G(d) OPT FREQ

110, Energy = -12800.55897073 au

0 1
 Ni     -0.93775700     -3.37013000     -2.35999000
 Ni     -1.70569000      0.10039300     -0.94837900
 Ni     -0.31689400     -4.16413000      0.12781900
 Ni      0.20816400      4.25423000     -0.10543500
 Ni     -1.26055000      2.87285000     -1.99292000
 Ni     -3.14639000      1.23289000      1.19371000
 Ni     -1.06871000     -0.70524600      1.42975000
 Ni      0.58696300      3.48003000      2.20039000
 Ni     -0.49465000     -0.90279100     -3.46677000
 Ni      2.69425000     -1.04511000     -1.14124000
 Ni      0.16764300     -1.67026000     -0.65722600
 Ni      1.42131000     -2.69489000     -2.77722000
 Ni      3.17963000      1.52506000     -1.86657000
 Ni      2.05056000     -0.87662300      3.42782000
 Ni      1.38578000     -0.04526320      0.98540800
 Ni      2.02492000     -0.22645700     -3.56833000
 Ni      1.35244000      3.30509000     -2.16789000
 Ni     -2.94750000     -1.53639000     -2.75314000
 Ni      3.31050000     -1.89380000      1.21905000
 Ni     -2.36885000     -2.41742000     -0.21758500
 Ni      3.91408000      0.63191100      0.52766600
 Ni      0.73128700      0.75757300     -1.39950000
 Ni     -2.32455000      0.99367700     -3.48074000
 Ni     -4.23116000     -0.57376800     -0.43917800
 Ni      2.65898000      1.51119000      2.63123000
 Ni      0.13734600      0.91125800      3.22909000
 Ni      2.04953000     -3.60379000     -0.34627600
 Ni     -1.72979000     -3.24275000      2.16465000
 Ni     -2.35063000      3.60686000      0.39367400
 Ni      2.07977000      2.52719000      0.23050100
 Ni     -1.82794000      2.76903000      2.71906000
 Ni     -2.24305000      0.21002700      3.62661000
 Ni      0.18673300      1.63301000     -3.82360000
 Ni     -0.49043700      1.73691000      0.67521500
 Ni     -3.51457000     -1.47083000      1.88895000
 Ni     -0.47031300     -1.56957000      3.82185000
 Ni     -3.65189000      1.93649000     -1.27291000
 Ni      0.86314200     -2.62408000      1.72056000
  C     -4.16777000      1.51730000     -3.14273000
  O     -5.17016000      1.92113000     -3.99221000
  C      3.91666000     -3.59307000     -0.67984900
  O      4.75991000     -4.59078000     -0.86494200
  C     -3.50887000      1.62549000      4.07583000
  O     -4.16428000      1.87354000      5.20582000
  C     -3.44964000      3.15596000      1.80527000
  O     -4.49350000      3.82314000      2.23564000
  C      4.69557000     -0.88187000     -1.11636000
  O      5.83013000     -1.34573000     -1.61463000
  C     -3.01024000      3.67989000     -1.39079000
  O     -3.62280000      4.71670000     -1.91783000
  C      0.78880400     -2.96008000      4.18517000
  O      1.04261000     -3.83311000      5.18304000
  C     -1.39404000      2.52680000     -4.05827000
  O     -1.64134000      3.35593000     -5.05196000
  C     -2.57191000     -1.89876000      3.76915000
  O     -3.19499000     -2.38700000      4.79712000
  C     -4.88762000      1.20526000     -0.04633490
  O     -6.08718000      1.68855000      0.06207830
  C     -2.92652000     -3.50632000     -2.93619000
  O     -3.62425000     -4.39803000     -3.69744000
  C      2.32459000      4.08125000     -0.80149200
  O      3.19088000      5.09444000     -0.80197000
  C      4.71338000      2.09722000     -0.82623800
  O      5.92208000      2.63333000     -1.12936000
  C     -4.92517000     -1.38392000     -2.07943000
  O     -6.14804000     -1.80077000     -2.48877000
  C      1.82662000      2.19922000      4.25724000
  O      2.17393000      2.72859000      5.44592000
  C     -0.10411600      4.49842000     -1.94355000
  O     -0.25890100      5.65776000     -2.55294000
  C     -2.31140000     -0.67542000     -4.32268000
  O     -2.65189000     -0.92338700     -5.56995000
  C     -1.11534000      4.80967000      1.16121000
  O     -1.42947000      6.05432000      1.35636000
  C     -1.48312000     -5.11718000      2.43250000
  O     -1.94380000     -6.05992000      3.20582000
  C      4.20316000      2.58037000      1.88051000
  O      5.22720000      3.22322000      2.44590000
  C      1.89530000      4.82514000      1.81647000
  O      2.30556000      5.89692000      2.49877000
  C      2.08735000      2.89457000     -3.93287000
  O      2.60015000      3.79024000     -4.83112000
  C     -3.83542000     -2.97741000      0.82096500
  O     -4.73182000     -3.90155000      0.72603300
  C     -0.68075300      3.46168000      4.15173000
  O     -0.97663500      4.35431000      5.11573000
  C      3.28040000     -3.16431000      2.62736000
  O      4.14856000     -4.02464000      3.17488000
  C     -0.38809000     -0.00043675      4.82864000
  O     -0.27777700      0.18327100      6.10478000
  C     -5.16726000     -0.24858600      1.82020000
  O     -6.28294000     -0.47783300      2.53946000
  C      0.77322600      0.16868400     -4.93291000
  O      0.95143400      0.15069700     -6.21433000
  C      3.74921000      0.67301400     -3.68495000
  O      4.69044000      0.85748200     -4.64665000
  C      1.22496000     -4.68349000      1.06590000
  O      1.52090000     -5.82224000      1.59846000
  C     -0.08352620     -2.69811000     -3.96841000
  O     -0.13306900     -3.18875000     -5.20353000
  C      3.46050000     -0.27222600      4.54271000
  O      4.09535000     -0.50667600      5.65710000
  C      3.00511000     -2.18838000     -3.70354000
  O      3.79059000     -2.81701000     -4.62332000
  C     -1.90373000     -4.95030000     -0.87409300
  O     -2.28218000     -6.23892000     -0.95979600
  C      4.89402000     -0.48355800      1.78380000
  O      6.19864000     -0.57735900      2.12819000
  C      0.92328000     -4.40276000     -1.92099000
  O      1.19192000     -5.54192000     -2.48142000

