110
Energy = -12693.97877019 au
 Ni      1.49927000     -2.56167000     -2.48466000
 Ni     -1.11582000     -1.01209000     -0.15380600
 Ni      3.25814000     -2.41251000     -0.51578700
 Ni     -3.02939000      2.96571000      1.27255000
 Ni     -3.10440000      0.81978800     -0.39713100
 Ni     -1.86523000     -1.55357000      2.48280000
 Ni      0.67114400     -0.83631300      1.75415000
 Ni     -1.31525000      3.05497000      3.03141000
 Ni     -0.42385800     -0.68009000     -2.80548000
 Ni      2.16056000      2.05564000     -1.61258000
 Ni      1.40004000     -0.49890300     -0.72949900
 Ni      2.06513000     -0.15872100     -3.29687000
 Ni      0.26507200      3.88423000     -1.80680000
 Ni      3.16138000      1.69646000      2.83326000
 Ni      1.34308000      1.51717000      0.93571900
 Ni      0.31125300      1.81407000     -3.56695000
 Ni     -2.26223000      3.22956000     -1.13993000
 Ni     -1.00648000     -3.13476000     -1.86225000
 Ni      3.90015000      2.15050000      0.24656300
 Ni      0.77267300     -3.03745000      0.22608100
 Ni      2.10818000      3.98166000      0.21550700
 Ni     -0.41700800      1.38854000     -0.97268800
 Ni     -2.93294000     -1.25659000     -2.07137000
 Ni     -1.81269000     -3.42003000      0.66909200
 Ni      1.37156000      3.49949000      2.60290000
 Ni      0.63903600      1.27429000      3.59892000
 Ni      3.98844000     -0.05882910     -1.32911000
 Ni      2.46286000     -2.66112000      2.18845000
 Ni     -3.62526000      0.59440900      2.15553000
 Ni     -0.36429900      3.65074000      0.64441100
 Ni     -1.96845000      0.73932200      3.98505000
 Ni      0.09387690     -1.32868000      4.26077000
 Ni     -2.30529000      1.22508000     -2.91417000
 Ni     -1.14075000      1.02388000      1.48956000
 Ni     -0.14834600     -3.29648000      2.64521000
 Ni      2.47657000     -0.54367800      3.69626000
 Ni     -3.80778000     -1.37685000      0.49082700
 Ni      3.51927000     -0.34793400      1.15701000
  C      4.97528000      0.63422200      0.06106790
  O      6.27929000      0.66892900      0.12011200
  C      3.06889000     -1.70294000     -3.92493000
  O      3.81790000     -2.02483000     -4.97790000
  C     -1.71524000      4.47438000     -2.57546000
  O     -2.26296000      5.61284000     -3.05150000
  C     -1.06243000     -2.74429000      4.11634000
  O     -1.49573000     -3.49523000      5.07225000
  C      4.67308000     -1.79942000     -1.55091000
  O      5.80404000     -2.28640000     -1.94791000
  C      0.11574200     -1.27858000     -4.64420000
  O     -0.21815000     -1.56104000     -5.86265000
  C      1.17187000     -4.11130000     -3.46252000
  O      1.66099000     -4.99367000     -4.24991000
  C      2.69419000     -4.25020000     -0.72939700
  O      3.27415000     -5.45465000     -0.70435700
  C      3.45537000      3.50719000     -0.94527600
  O      4.24279000      4.37269000     -1.51216000
  C      3.67436000      3.29888000      1.85591000
  O      4.66915000      4.04341000      2.23814000
  C     -1.86999000      4.42681000      1.47745000
  O     -2.11086000      5.69421000      1.61822000
  C     -3.56732000      2.31568000      3.02563000
  O     -4.55631000      2.82958000      3.69146000
  C     -0.43016500     -4.87147000     -0.80965000
  O     -0.33531900     -6.21133000     -0.97140900
  C     -2.96446000     -0.76305000     -3.97718000
  O     -3.73080000     -1.06346000     -5.02916000
  C      4.37201000     -2.70388000      1.49924000
  O      5.48327000     -3.35385000      1.97080000
  C      4.12161000      0.09872370      2.94327000
  O      5.30556000     -0.01149250      3.48189000
  C      1.22512000      3.74615000     -3.57372000
  O      1.48751000      4.70214000     -4.51494000
  C     -3.24630000     -3.66669000     -0.71633700
  O     -4.07391000     -4.72922000     -0.89296000
  C      1.15666000      5.40055000      2.28201000
  O      1.47799000      6.40080000      3.06994000
  C     -4.31331000      3.23090000     -0.24349400
  O     -5.40298000      4.04280000     -0.28946800
  C     -0.80889400      2.32230000      4.98172000
  O     -0.90144500      3.35329000      5.79159000
  C     -4.17415000     -2.43918000      2.03420000
  O     -5.21362000     -3.06384000      2.59905000
  C     -4.10706000      1.76992000     -2.65095000
  O     -5.20066000      2.08517000     -3.31524000
  C      1.72053000      1.10068000     -4.82809000
  O      2.17429000      1.35844000     -6.07944000
  C     -4.87588000     -1.30218000     -1.51571000
  O     -6.05208000     -1.68159000     -2.01432000
  C     -1.88395000     -3.59886000     -3.47481000
  O     -2.29118000     -4.57051000     -4.20746000
  C     -4.83485000      0.19044500      0.82066700
  O     -6.12611000      0.43410800      0.89057700
  C     -1.42357000      2.05891000     -4.48315000
  O     -1.82270000      2.57517000     -5.68244000
  C      1.51714000     -4.34965000      2.23727000
  O      1.83202000     -5.53616000      2.77802000
  C     -0.44876000      0.64876400      5.33028000
  O     -0.34569000      0.37578900      6.57026000
  C      2.27278000      1.69140000      4.42765000
  O      2.56466000      2.15249000      5.59746000
  C      1.85102000     -2.23087000      4.26436000
  O      2.29880000     -2.84153000      5.32553000
  C      4.04044000      1.23743000     -2.88397000
  O      5.04773000      1.76234000     -3.64122000
  C      0.74251200      5.07339000     -0.47880500
  O      0.80544300      6.36528000     -0.56032800
  C     -3.43417000     -0.46571500      4.20336000
  O     -4.26673000     -0.74144100      5.24385000
  C     -1.68232000     -4.78229000      2.08561000
  O     -2.24775000     -5.92506000      2.48093000
