#B3LYP/6-31+G(d) OPT FREQ

110, Energy = -11764.96145232 au

0 1
 Ni      0.47590400     -2.71780000     -2.75466000
 Ni     -1.35536000     -0.14749900     -0.75578700
 Ni      1.59616000     -3.64934000     -0.63082700
 Ni     -1.27588000      4.10470000      0.90776200
 Ni     -1.84989000      2.37221000     -0.97899300
 Ni     -2.68430000     -0.15945000      1.46596000
 Ni     -0.24757200     -1.03211000      1.37469000
 Ni     -0.15954400      3.16158000      3.03359000
 Ni     -0.04686250     -0.12146600     -2.99691000
 Ni      3.01241000      0.64830700     -1.16729000
 Ni      1.06411000     -1.02097000     -0.83693400
 Ni      2.42021000     -0.97463700     -3.07318000
 Ni      2.50687000      3.23654000     -1.41082000
 Ni      2.79688000     -0.25312100      3.21336000
 Ni      1.67528000      0.62800400      1.05285000
 Ni      1.88192000      1.60297000     -3.33042000
 Ni      0.09054570      4.07468000     -1.32119000
 Ni     -1.99492000     -1.81210000     -2.68530000
 Ni      4.13129000     -0.22008100      0.99538900
 Ni     -0.86109500     -2.68908000     -0.52332000
 Ni      3.61572000      2.31596000      0.76677200
 Ni      0.56816200      1.51209000     -1.07866000
 Ni     -2.50311000      0.74675100     -2.93787000
 Ni     -3.31737000     -1.86651000     -0.44494900
 Ni      2.32315000      2.26159000      2.96713000
 Ni      0.38735800      0.59434500      3.28588000
 Ni      3.50889000     -1.88256000     -0.96263600
 Ni      0.25958100     -3.60730000      1.64291000
 Ni     -3.19210000      2.36519000      1.24555000
 Ni      1.19740000      3.16892000      0.81040300
 Ni     -2.10457000      1.44531000      3.34794000
 Ni     -1.57445000     -1.09461000      3.61865000
 Ni     -0.54114300      2.43975000     -3.26095000
 Ni     -0.74437700      1.50080000      1.13389000
 Ni     -2.19780000     -2.76033000      1.71779000
 Ni      0.88451300     -1.94858000      3.54049000
 Ni     -3.83266000      0.69019300     -0.67422100
 Ni      2.17923000     -1.90416000      1.30427000
  C     -2.13766000      4.13840000      3.15637000
  O     -2.40783000      4.96699000      4.18027000
  C     -1.61479000     -3.01095000     -4.30954000
  O     -2.23069000     -3.75942000     -5.14731000
  C      0.60897000      5.34729000      1.22755000
  O      0.36184600      6.58562000      1.60691000
  C      1.59608000     -4.06019000      3.64947000
  O      1.73283000     -5.14902000      4.31777000
  C      2.96568000      4.32123000      0.94991300
  O      3.90709000      5.16998000      1.42138000
  C      4.54421000     -0.52461200     -2.12355000
  O      5.70900000     -0.58295300     -2.66633000
  C      4.16349000      1.80094000      3.05591000
  O      5.23330000      1.89635000      4.06203000
  C      3.19329000     -4.21726000      0.78389900
  O      3.84882000     -5.33027000      0.82251700
  C     -3.49537000     -0.27056100     -4.77334000
  O     -4.40361000     -0.16483300     -5.66838000
  C      1.11869000      3.28029000      4.56879000
  O      1.69878000      4.25761000      5.28973000
  C      4.86896000     -2.29471000      0.69286100
  O      6.17738000     -2.42142000      0.92356800
  C     -0.44916700      0.17186000     -5.02140000
  O     -0.48686400      0.16657600     -6.29078000
  C     -4.79463000     -2.85198000      1.34189000
  O     -5.91302000     -3.46509000      1.47052000
  C      3.35439000     -3.51352000     -2.53061000
  O      4.30431000     -4.24705000     -3.02838000
  C     -5.56747000      0.21364200      0.90970000
  O     -6.81887000      0.47151200      0.73592700
  C      1.83237000      5.04265000     -1.24437000
  O      2.14283000      6.27067000     -1.82878000
  C      0.77696500     -5.18906000     -2.21737000
  O      0.78961100     -6.20118000     -3.02011000
  C     -2.62123000     -4.13812000     -1.05451000
  O     -3.24902000     -5.21697000     -1.33404000
  C     -4.42014000     -1.61730000     -2.07471000
  O     -5.59278000     -2.07794000     -2.50473000
  C     -3.66073000      4.83497000      0.24668600
  O     -4.70091000      5.45488000      0.69177900
  C      1.50753000      0.18600100      4.89619000
  O      1.93711000      0.25086700      6.10843000
  C      4.51497000      2.66758000     -2.46873000
  O      5.31063000      3.51021000     -3.00939000
  C      0.99971000     -2.41654000     -4.69288000
  O      1.40988000     -3.06834000     -5.73267000
  C      5.46762000      1.11853000      0.30136900
  O      6.64458000      1.72508000      0.42295700
  C      1.06102000      3.15456000     -4.13819000
  O      1.35441000      3.90721000     -5.17007000
  C     -1.99369000      4.66824000     -1.74092000
  O     -2.21714000      5.93843000     -2.01384000
  C     -2.49873000      3.41123000     -3.81743000
  O     -2.76445000      3.86687000     -4.98893000
  C      3.28392000      0.17723100     -4.59756000
  O      3.83670000      0.26864600     -5.76602000
  C     -0.23390100     -5.14477000      0.47359400
  O     -0.17615600     -6.45049000      0.59414500
  C     -4.03870000      1.48870000      2.80972000
  O     -4.99644000      1.88587000      3.56824000
  C     -2.07035000     -4.68893000      2.51037000
  O     -2.67879000     -5.51636000      3.25697000
  C     -4.19277000      2.31256000     -1.96351000
  O     -5.33655000      2.80761000     -2.44766000
  C      3.42581000     -2.10706000      3.21275000
  O      4.29809000     -2.60600000      4.21835000
  C     -0.81980900     -2.39332000      4.99032000
  O     -0.92016200     -2.76419000      6.25214000
  C     -1.13539000      0.97832700      5.08548000
  O     -1.58043000      1.37884000      6.31862000
  C     -3.65988000     -1.37885000      3.48572000
  O     -4.42544000     -1.61979000      4.53453000

