#B3LYP/6-31+G(d) OPT FREQ

110, Energy = -12469.25113915 au

0 1
 Ni     -2.46731000     -3.07096000     -1.63291000
 Ni     -2.07619000      0.57737700     -0.51898200
 Ni     -1.37636000     -3.87681000      0.53632300
 Ni      0.62688700      4.32487000     -0.34271600
 Ni     -1.45926000      2.97298000     -1.70707000
 Ni     -2.62734000      1.90768000      1.76276000
 Ni     -1.01021000     -0.21703500      1.68703000
 Ni      1.63936000      3.54526000      1.79162000
 Ni     -1.65764000     -0.73191200     -2.85310000
 Ni      1.87674000     -1.39600000     -1.66976000
 Ni     -0.53992600     -1.51360000     -0.52096700
 Ni     -0.05613340     -2.83212000     -2.81073000
 Ni      2.62400000      0.90352100     -2.72637000
 Ni      2.44627000     -0.88897500      2.84425000
 Ni      1.32982000     -0.06882670      0.59800500
 Ni      0.82068400     -0.56862000     -3.88654000
 Ni      1.03598000      2.98816000     -2.71439000
 Ni     -3.96892000     -0.87349200     -1.71284000
 Ni      2.98612000     -2.22259000      0.54341300
 Ni     -2.99291000     -1.72377000      0.52530500
 Ni      3.76758000      0.07660530     -0.47525100
 Ni      0.24935800      0.72741000     -1.60344000
 Ni     -3.20087000      1.34792000     -2.77539000
 Ni     -4.45519000      0.50245900      0.56470500
 Ni      3.24264000      1.36424000      1.74263000
 Ni      0.88494500      1.32427000      2.92465000
 Ni      1.10832000     -3.66511000     -0.54678600
 Ni     -1.82808000     -2.54172000      2.75452000
 Ni     -1.71934000      4.11732000      0.59632000
 Ni      2.17175000      2.27904000     -0.43973800
 Ni     -0.62739000      3.38747000      2.79516000
 Ni     -1.49634000      1.03624000      3.98633000
 Ni     -0.90188400      1.62576000     -3.83966000
 Ni     -0.22262300      2.00748000      0.59021300
 Ni     -3.38999000     -0.40463700      2.78103000
 Ni      0.06796340     -0.99840900      3.94918000
 Ni     -3.70064000      2.65450000     -0.47451300
 Ni      0.58817400     -2.34048000      1.67880000
  C      2.93715000      3.33376000     -2.57025000
  O      3.78388000      4.24678000     -3.10654000
  C     -4.00540000      0.85964600      4.21310000
  O     -4.92940000      0.75638900      5.13989000
  C     -0.12455300      4.96516000     -2.22358000
  O     -0.11097400      6.30265000     -2.45349000
  C     -2.30350000     -5.36720000     -0.86330600
  O     -2.84719000     -6.50739000     -0.59940000
  C     -2.92430000      4.33696000     -0.79982600
  O     -3.63037000      5.40912000     -1.04505000
  C      3.73424000      2.95454000      2.73167000
  O      4.75037000      3.46675000      3.40702000
  C     -2.47877000      3.03225000     -3.37142000
  O     -3.15755000      3.87498000     -4.08228000
  C      1.28217000     -5.16303000      0.57114200
  O      1.47066000     -6.44701000      0.57038100
  C      0.89281900     -4.53756000     -2.62590000
  O      0.98634300     -5.69389000     -3.28499000
  C      4.66423000      1.96258000     -0.14396400
  O      5.87086000      2.53487000     -0.20835500
  C      1.68311000     -2.40698000      4.30677000
  O      2.07006000     -2.94179000      5.46525000
  C      1.99281000      0.74985100     -4.74259000
  O      2.50761000      0.92564100     -5.98527000
  C     -2.52533000      3.37120000      3.69837000
  O     -3.18545000      4.21793000      4.49661000
  C      0.05404600     -2.13418000     -4.76591000
  O      0.06145240     -2.67436000     -6.01831000
  C      4.39063000     -0.36051500      2.74891000
  O      5.52487000     -0.59749700      3.39785000
  C     -1.98399000     -3.83452000     -3.49350000
  O     -2.56604000     -4.68927000     -4.32205000
  C      2.35807000      4.48408000      0.35782200
  O      3.11426000      5.53324000      0.44140300
  C     -5.15498000     -1.61878000      1.58446000
  O     -6.44834000     -1.32178000      1.55851000
  C     -1.86905000     -1.88818000      4.72605000
  O     -2.21793000     -2.43320000      5.90631000
  C     -0.16046600      0.99324600      5.60220000
  O     -0.43445000      1.42734000      6.80189000
  C      0.02915900      3.29201000     -4.39965000
  O      0.08729220      4.13575000     -5.46670000
  C      4.49898000      0.45420200     -2.60669000
  O      5.58711000      0.56749800     -3.36878000
  C      3.11573000     -3.30775000      2.13008000
  O      3.92654000     -4.21774000      2.63582000
  C     -1.19505000      0.33296100     -5.29000000
  O     -1.67969000      0.45531500     -6.51552000
  C     -0.42545500     -4.25690000      2.83298000
  O     -0.36642000     -5.35900000      3.56995000
  C      5.05830000     -1.37214000     -0.10574300
  O      6.35165000     -1.62476000     -0.21623200
  C     -0.28456700      5.06870000      1.50624000
  O     -0.45342200      6.29953000      1.84767000
  C     -3.59497000     -3.45087000      2.23820000
  O     -4.57109000     -4.14456000      2.78625000
  C      3.39753000     -3.58564000     -1.10526000
  O      4.32877000     -4.49652000     -1.34988000
  C     -4.44225000      2.26237000      1.34773000
  O     -5.39230000      2.99479000      1.86204000
  C     -4.19986000     -2.62129000     -1.05682000
  O     -5.29101000     -3.31631000     -1.17319000
  C     -4.88094000      1.17483000     -1.43960000
  O     -6.07625000      1.46997000     -1.85256000
  C      2.89920000     -1.94754000     -3.73629000
  O      3.71481000     -2.62460000     -4.45591000
  C      1.07510000      3.51662000      3.56436000
  O      1.41537000      4.28529000      4.54348000
  C     -3.53941000     -0.52650600     -3.50836000
  O     -4.30823000     -0.88703400     -4.49764000
  C      2.22515000      0.68752400      4.52125000
  O      2.70795000      0.97625600      5.72277000

