#B3LYP/6-31+G(d) OPT FREQ

110, Energy = -12445.39279774 au

0 1
 Ni      1.43155000     -1.51542000     -3.33289000
 Ni      0.02878250     -1.96829000      0.10509400
 Ni      3.47647000      0.04944680     -2.47264000
 Ni     -2.90957000     -0.45690900      3.29268000
 Ni     -2.41106000     -1.91684000      1.22271000
 Ni      1.07155000     -2.66976000      2.44255000
 Ni      1.85883000     -0.51623600      1.09224000
 Ni     -0.96003600      1.04095000      4.32213000
 Ni     -1.06737000     -1.45866000     -2.35970000
 Ni     -0.66182000      2.28603000     -1.57239000
 Ni      0.90252700      0.05558480     -1.30225000
 Ni     -0.16627500      0.63618100     -3.79871000
 Ni     -3.30610000      2.25442000     -0.30345200
 Ni      2.37543000      3.14007000      1.74675000
 Ni      0.36372500      1.61732000      0.82727600
 Ni     -2.58846000      0.86475300     -2.63514000
 Ni     -3.95355000      0.13399500      0.99001100
 Ni      0.54721800     -3.49574000     -1.92365000
 Ni      1.24244000      3.81977000     -0.59717600
 Ni      2.60726000     -2.11753000     -1.11289000
 Ni     -1.17349000      3.90257000      0.72159700
 Ni     -1.52770000      0.13864500     -0.17161100
 Ni     -1.83945000     -3.50309000     -0.93103900
 Ni      1.52054000     -4.03983000      0.35449800
 Ni      0.03988190      3.15119000      3.03762000
 Ni      1.46246000      1.20018000      3.15777000
 Ni      1.96727000      2.29666000     -2.65283000
 Ni      4.28860000     -0.39551100      0.03585610
 Ni     -1.31906000     -2.43755000      3.54367000
 Ni     -2.43036000      1.92171000      2.10372000
 Ni      0.52795300     -0.87898400      4.64923000
 Ni      2.94096000     -1.11061000      3.51340000
 Ni     -3.50448000     -1.35204000     -1.25240000
 Ni     -0.49191900     -0.42294400      2.18627000
 Ni      3.50050000     -2.52603000      1.22511000
 Ni      3.71693000      0.97192500      2.00540000
 Ni     -0.91752900     -4.02255000      1.53308000
 Ni      2.73394000      1.58286000     -0.33356700
  C      3.13598000     -4.48079000      1.93573000
  O      4.12457000     -5.32920000      2.25444000
  C     -1.83139000      3.79052000      2.45352000
  O     -2.40669000      4.69913000      3.17392000
  C     -0.55886300     -4.16214000     -3.36359000
  O     -0.51027200     -5.19234000     -4.15400000
  C      3.80768000      2.75574000     -2.44805000
  O      4.76120000      3.44357000     -3.03645000
  C      4.38530000     -2.20916000     -0.62034800
  O      5.46300000     -2.77331000     -1.06798000
  C     -4.29565000      1.97481000      1.19402000
  O     -5.43946000      2.44114000      1.64032000
  C     -1.51437000     -1.51597000     -4.67839000
  O     -1.93528000     -2.19399000     -5.64448000
  C     -3.38801000     -3.20695000     -2.13477000
  O     -4.28952000     -4.00794000     -2.77795000
  C      1.29809000      2.16923000     -4.50059000
  O      1.63070000      2.76402000     -5.65485000
  C      2.82339000     -3.07629000     -3.23816000
  O      3.63997000     -3.84912000     -3.95898000
  C      1.01535000      4.40975000     -2.46476000
  O      1.25293000      5.58746000     -3.06935000
  C      4.08206000     -0.16764000     -4.39538000
  O      5.28186000     -0.22822300     -4.84268000
  C      2.16307000      0.23836200      4.71006000
  O      2.78035000      0.73410100      5.73291000
  C     -2.82429000      4.16953000     -0.19258200
  O     -3.61995000      5.26055000     -0.20838000
  C     -2.50335000     -3.94469000      3.52566000
  O     -2.95304000     -4.73003000      4.48507000
  C      4.50773000     -0.89996800      2.37608000
  O      5.69613000     -1.05762000      2.87845000
  C      1.51830000      4.31863000      3.17833000
  O      1.95998000      5.33641000      3.97726000
  C     -1.18429000     -5.24399000     -0.24161700
  O     -1.66081000     -6.51754000     -0.40974100
  C     -4.53270000     -1.26080000      2.85713000
  O     -5.63399000     -1.63377000      3.53772000
  C     -1.73862000      1.42607000     -4.67466000
  O     -2.11636000      1.76595000     -5.90522000
  C      1.14361000     -0.75461800     -5.03702000
  O      1.53132000     -0.94534500     -6.30347000
  C      2.27014000     -4.92734000     -1.23269000
  O      2.72357000     -6.17427000     -1.37942000
  C      1.69864000     -2.50782000      4.26651000
  O      1.95610000     -3.39904000      5.16641000
  C     -5.18079000     -1.01052000     -0.17356600
  O     -6.50600000     -1.13056000     -0.38067400
  C     -1.31530000     -0.88497200      5.07778000
  O     -1.70305000     -1.01782000      6.31296000
  C      0.29683500      5.29747000      0.53547400
  O      0.26189900      6.65321000      0.47380900
  C     -4.42845000      2.12893000     -1.89949000
  O     -5.54988000      2.76300000     -2.36064000
  C      0.35782200     -4.97543000      2.60740000
  O      0.64628300     -6.18621000      3.10253000
  C      3.77887000      3.00962000      3.17804000
  O      5.00203000      3.43269000      3.50853000
  C      5.19753000      1.12100000     -0.45276700
  O      6.42571000      1.63786000     -0.33597400
  C     -3.94398000     -0.50769200     -3.17593000
  O     -4.95360000     -0.54180600     -4.06913000
  C      0.13563900      2.40492000      5.00010000
  O      0.36676300      2.93398000      6.22479000
  C      3.26983000      4.11709000      0.08375040
  O      4.20367000      5.10764000      0.06426560
  C     -3.45032000     -3.64893000      0.85925900
  O     -4.59036000     -4.28542000      1.19656000
  C     -2.91874000      1.42100000      3.98441000
  O     -3.71446000      1.87425000      4.89026000
  C     -1.86418000      3.50901000     -3.05139000
  O     -2.02690000      4.63130000     -3.58201000

