110
Energy = -12976.68769763 au
 Ni      0.27614100     -3.73289000     -2.28422000
 Ni     -1.01161000     -0.38473400     -1.35000000
 Ni      0.35272100     -4.46395000      0.18179600
 Ni      0.18853600      4.05578000     -0.03378210
 Ni     -0.43994700      2.22635000     -2.05554000
 Ni     -2.86256000      0.47598500      0.31278600
 Ni     -0.93670500     -1.14395000      1.16845000
 Ni      0.28094800      3.15262000      2.50724000
 Ni      0.88614400     -1.16218000     -3.30349000
 Ni      3.58323000     -1.17646000     -0.30180800
 Ni      0.86521600     -1.94680000     -0.49036200
 Ni      2.59102000     -2.75397000     -2.26608000
 Ni      3.87659000      1.42625000     -0.95978400
 Ni      1.66816000     -1.05192000      4.00453000
 Ni      1.50938000     -0.25027300      1.36696000
 Ni      3.33025000     -0.32047300     -2.79259000
 Ni      2.01846000      3.11630000     -1.74388000
 Ni     -1.63857000     -2.16166000     -3.24660000
 Ni      3.50917000     -1.69452000      2.28872000
 Ni     -1.84607000     -3.32208000     -0.76602200
 Ni      3.86876000      0.74465800      1.74677000
 Ni      1.43761000      0.51857700     -1.14930000
 Ni     -1.16323000      0.42237000     -3.90286000
 Ni     -3.51272000     -1.32248000     -1.58518000
 Ni      2.04358000      1.53954000      3.33798000
 Ni     -0.30516700      0.67504900      3.36706000
 Ni      2.70367000     -3.55592000      0.33589400
 Ni     -1.47236000     -3.69981000      1.98304000
 Ni     -2.27254000      3.12717000     -0.32693900
 Ni      2.23897000      2.56082000      0.85806300
 Ni     -2.27148000      2.23155000      2.18908000
 Ni     -2.82786000     -0.29822100      2.81821000
 Ni      1.49154000      1.30084000     -3.68656000
 Ni     -0.37171500      1.39907000      0.53026500
 Ni     -3.46256000     -2.06621000      1.05845000
 Ni     -0.95272500     -1.80950000      3.75229000
 Ni     -2.97558000      1.27151000     -2.15790000
 Ni      1.12666000     -2.94711000      2.38119000
  C     -0.25617400     -3.57535000      3.53270000
  O     -0.04450040     -4.35754000      4.55342000
  C     -4.26099000      1.62940000      1.84026000
  O     -5.53328000      1.96035000      2.08460000
  C      2.32056000     -0.29965000     -4.37582000
  O      2.83519000     -0.50096700     -5.55171000
  C      0.57541200      5.02981000      2.29298000
  O      0.57324400      6.11398000      3.05283000
  C      1.64889000     -4.57842000      1.58595000
  O      1.95572000     -5.67446000      2.22005000
  C      2.56119000     -2.68857000      3.68740000
  O      3.23941000     -3.41115000      4.52608000
  C     -2.45266000      4.13094000      1.65016000
  O     -3.23970000      5.13532000      2.09814000
  C      4.73164000     -0.24966300     -1.49385000
  O      5.98862000     -0.50265900     -1.70108000
  C     -4.83156000      0.09979850     -1.30768000
  O     -6.19480000      0.22229500     -1.47375000
  C     -1.03501000     -1.08466000     -5.15585000
  O     -1.20941000     -1.23576000     -6.49695000
  C     -2.31791000      1.89106000      4.07494000
  O     -2.85303000      2.46350000      5.18668000
  C     -3.46228000     -1.82576000     -3.37680000
  O     -4.37954000     -2.11849000     -4.22674000
  C     -3.28237000     -3.48879000      2.69835000
  O     -4.05356000     -4.48718000      3.20954000
  C     -1.57541000     -3.97776000     -2.56430000
  O     -2.08627000     -5.02720000     -3.14475000
  C     -3.71064000     -2.98561000     -0.60890800
  O     -4.60837000     -3.90280000     -0.82250900
  C      2.10031000      4.19153000     -0.14422400
  O      2.77406000      5.28476000      0.08498860
  C     -4.06317000      2.98516000     -1.13606000
  O     -5.05707000      3.83950000     -1.39306000
  C     -1.16431000      5.21115000     -0.70797900
  O     -1.38868000      6.50603000     -0.76501500
  C     -4.94552000     -1.04631000      1.72820000
  O     -6.17431000     -1.40254000      2.07345000
  C      0.83326000     -2.94592000     -3.88203000
  O      0.96085400     -3.45390000     -5.06212000
  C      3.11525000      0.14911700      4.03005000
  O      3.77727000      0.29638900      5.14798000
  C      0.14743000      1.99680000     -4.90599000
  O      0.22163500      2.54326000     -6.13678000
  C      5.08570000     -0.93872800      1.64386000
  O      6.23325000     -0.73967900      2.16109000
  C      4.79891000      2.58935000      0.25013700
  O      5.91026000      3.32229000      0.14319000
  C     -1.77604000      3.45152000     -2.89244000
  O     -1.91759000      4.40962000     -3.80101000
  C      1.75080000     -4.72399000     -1.32355000
  O      2.11205000     -5.91330000     -1.69734000
  C     -2.91280000     -1.22744000      4.53216000
  O     -3.75943000     -1.44295000      5.54921000
  C      0.03713750     -0.69733700      4.89807000
  O     -0.13534100     -0.63421700      6.18104000
  C      4.30982000     -2.52840000     -3.07108000
  O      5.12416000     -3.25963000     -3.81711000
  C      1.23771000      4.29305000     -2.98260000
  O      1.60508000      5.35385000     -3.64102000
  C      0.60334600      2.34687000      4.22814000
  O      0.58334800      2.84459000      5.41180000
  C     -3.17680000      1.18104000     -4.08217000
  O     -4.07943000      1.55508000     -5.02384000
  C      3.23756000      2.68503000      2.46987000
  O      3.95169000      3.59969000      3.02639000
  C      4.51443000     -2.55422000      0.77228700
  O      5.42629000     -3.44463000      0.50277400
  C      3.39791000      2.02585000     -2.86931000
  O      4.27809000      2.53626000     -3.67517000
  C     -1.47236000     -4.85154000      0.40878300
  O     -1.93170000     -6.06316000      0.33244700
