#B3LYP/6-31+G(d) OPT FREQ

110, Energy = -12023.22294858 au

0 1
 Ni      0.00439034     -3.49595000     -2.21382000
 Ni     -1.40851000     -0.31257100     -0.93217200
 Ni      0.64184600     -4.22950000      0.16791300
 Ni     -0.54473800      4.06517000      0.05141590
 Ni     -1.30161000      2.17275000     -1.63159000
 Ni     -2.91999000      0.31778700      1.04362000
 Ni     -0.75093700     -0.99449800      1.44360000
 Ni      0.08686380      3.32413000      2.43181000
 Ni      0.07759230     -0.95606100     -2.92195000
 Ni      3.03883000     -0.48747600     -0.85149700
 Ni      0.75054800     -1.65814000     -0.53697700
 Ni      2.29481000     -2.29581000     -2.53352000
 Ni      3.14907000      2.01982000     -1.55651000
 Ni      2.21854000     -0.53143200      3.54052000
 Ni      1.51705000      0.15329900      1.13647000
 Ni      2.39158000      0.21828800     -3.25674000
 Ni      0.97812400      3.36495000     -1.95084000
 Ni     -2.18760000     -2.12317000     -2.65612000
 Ni      3.72759000     -1.16017000      1.56747000
 Ni     -1.51427000     -2.81494000     -0.23342500
 Ni      3.82900000      1.31425000      0.85832100
 Ni      0.85720100      0.83460300     -1.24048000
 Ni     -2.09794000      0.35876500     -3.34914000
 Ni     -3.71521000     -1.48362000     -0.63926200
 Ni      2.31950000      1.95487000      2.85350000
 Ni      0.01397140      0.80909200      3.13595000
 Ni      2.91905000     -3.00399000     -0.16965400
 Ni     -0.84931500     -3.53295000      2.15102000
 Ni     -2.80782000      2.84881000      0.35755400
 Ni      1.62440000      2.64492000      0.42664500
 Ni     -2.15531000      2.14359000      2.75270000
 Ni     -2.28104000     -0.37158900      3.46793000
 Ni      0.19841200      1.54536000     -3.64991000
 Ni     -0.64422300      1.49827000      0.74007500
 Ni     -3.03976000     -2.18154000      1.76792000
 Ni     -0.07764100     -1.69805000      3.85238000
 Ni     -3.61791000      1.01192000     -1.35062000
 Ni      1.41140000     -2.34986000      1.84464000
  C     -5.04879000     -0.20842400      0.25271500
  O     -6.40785000     -0.37605100      0.28137200
  C     -4.21704000     -0.95859500      3.02330000
  O     -5.29937000     -1.43833000      3.74341000
  C      4.28801000      3.25646000      1.75325000
  O      5.52644000      3.59834000      1.89364000
  C      1.63965000     -4.60616000     -1.58919000
  O      1.95466000     -5.82799000     -1.86134000
  C      4.09584000     -0.93977100     -3.75843000
  O      4.74563000     -0.94300600     -4.89409000
  C      0.37396400      5.38648000     -1.63665000
  O      0.10637100      6.64493000     -1.57006000
  C      3.49377000     -3.98380000      1.73021000
  O      4.39682000     -4.89421000      1.56974000
  C     -0.06556570      3.48387000     -4.05089000
  O      0.05618910      4.49509000     -4.84503000
  C     -1.30682000     -4.83405000     -0.13329900
  O     -1.66602000     -6.06738000     -0.17413500
  C     -3.83779000     -3.50105000     -0.04700530
  O     -4.96535000     -4.21516000     -0.15236100
  C     -1.98210000      4.39317000      1.44347000
  O     -2.54001000      5.50762000      1.77687000
  C     -1.60430000      0.38490600      5.56760000
  O     -2.43920000      0.36878100      6.54499000
  C     -4.90739000      2.40015000      0.10274900
  O     -5.82516000      3.33559000      0.18293500
  C      4.25739000      0.31186400      3.11333000
  O      5.10032000      0.30543600      4.09039000
  C     -1.39890000     -1.39067000     -4.57760000
  O     -1.73143000     -1.76061000     -5.76871000
  C      0.95224200      0.36523300     -5.14315000
  O      1.22006000      0.54615000     -6.43269000
  C      4.83715000      0.91902600     -1.31926000
  O      6.04260000      1.23715000     -1.68351000
  C     -4.13281000      1.71637000      2.90683000
  O     -4.95638000      2.29683000      3.73009000
  C     -0.80378200      2.99105000      4.14787000
  O     -1.04932000      3.78913000      5.12536000
  C      1.09969000     -2.87619000     -4.29977000
  O      1.57031000     -3.64461000     -5.24106000
  C      1.92525000      3.16100000      4.56796000
  O      2.74369000      3.85926000      5.28468000
  C      1.45721000      4.90157000      1.52348000
  O      1.61235000      6.01316000      2.17650000
  C     -1.85171000     -4.07513000     -3.05624000
  O     -2.07364000     -5.10952000     -3.80502000
  C      4.16978000     -2.51346000     -1.89052000
  O      5.13171000     -3.24280000     -2.33237000
  C      2.81950000      4.02253000     -0.82887800
  O      3.54005000      5.07119000     -1.00725000
  C      5.61408000     -0.97379400      0.23524300
  O      6.72014000     -1.32144000      0.79213300
  C     -2.69950000     -3.98258000      2.65407000
  O     -3.29996000     -4.97230000      3.37470000
  C     -2.01072000      1.92219000     -4.58694000
  O     -2.57582000      2.25363000     -5.73669000
  C     -4.57384000      0.96851900     -3.24998000
  O     -5.76395000      1.32418000     -3.59802000
  C     -2.61721000      3.76189000     -2.02709000
  O     -3.27716000      4.72780000     -2.58200000
  C      1.01808000      0.21066100      4.95951000
  O      1.30512000      0.29565400      6.21045000
  C      0.90918100     -4.66275000      2.18061000
  O      1.00286000     -5.83433000      2.69913000
  C     -0.83788800     -3.49428000      4.65482000
  O     -0.87172300     -3.73882000      5.92490000
  C     -4.29168000     -1.67805000     -2.83004000
  O     -5.13666000     -2.26033000     -3.62240000
  C      2.72968000      2.59575000     -3.82923000
  O      3.63874000      3.29526000     -4.47636000
  C      2.55167000     -2.48147000      3.61954000
  O      3.18924000     -3.11506000      4.54035000

