#B3LYP/6-31+G(d) OPT FREQ

110, Energy = -11954.77403215 au

0 1
 Ni      0.58786500     -3.48240000     -2.05209000
 Ni     -1.55284000     -0.56978200     -0.96503600
 Ni      1.30659000     -3.86579000      0.67794700
 Ni     -1.81149000      3.87114000     -0.45427000
 Ni     -2.08971000      1.96365000     -2.05912000
 Ni     -3.36442000     -0.05495740      0.99072400
 Ni     -0.85110600     -0.86285500      1.49586000
 Ni     -1.01660000      3.63519000      2.09044000
 Ni      0.16008000     -1.11533000     -2.88687000
 Ni      2.86901000      0.20890000     -0.76503700
 Ni      0.84423200     -1.38507000     -0.38127300
 Ni      2.63405000     -1.95424000     -2.39588000
 Ni      2.43670000      2.65368000     -1.71480000
 Ni      1.85593000      0.37116600      3.74170000
 Ni      1.14263000      0.71242600      1.11194000
 Ni      2.14395000      0.45874200     -3.32291000
 Ni      0.07137150      3.45215000     -2.38579000
 Ni     -2.03622000     -2.71485000     -2.49640000
 Ni      3.58286000     -0.03647630      1.75544000
 Ni     -1.23786000     -3.04770000     -0.06085950
 Ni      3.19284000      2.36503000      0.79898200
 Ni      0.44707000      1.00073000     -1.34502000
 Ni     -2.42649000     -0.35897300     -3.38502000
 Ni     -3.53028000     -2.24644000     -0.79342500
 Ni      1.43197000      2.84407000      2.64932000
 Ni     -0.52718000      1.21043000      3.15360000
 Ni      3.31871000     -2.25752000      0.11900600
 Ni     -0.45363400     -3.23578000      2.56130000
 Ni     -3.66514000      2.39625000     -0.05654920
 Ni      0.78334800      3.05856000      0.13072100
 Ni     -2.98420000      1.94867000      2.47053000
 Ni     -2.57410000     -0.39181500      3.48933000
 Ni     -0.23615700      1.34121000     -3.86895000
 Ni     -1.25064000      1.52884000      0.54247700
 Ni     -2.97746000     -2.45675000      1.96133000
 Ni     -0.17147900     -1.16867000      4.00385000
 Ni     -4.00548000      0.10061100     -1.66285000
 Ni      1.56162000     -1.68612000      2.13105000
  C     -1.23251000     -0.52181300     -5.14561000
  O     -1.70731000     -0.76345400     -6.34887000
  C     -0.86583000     -4.94282000      1.67010000
  O     -1.16456000     -6.14998000      2.20172000
  C     -3.61979000     -1.85853000     -2.92280000
  O     -4.51784000     -2.36212000     -3.72010000
  C     -2.95111000      3.74285000      1.64923000
  O     -3.68618000      4.68426000      2.16306000
  C      2.36758000     -4.49993000      2.23998000
  O      2.91380000     -5.66775000      2.36177000
  C     -2.84192000      1.30433000      5.23168000
  O     -3.71991000      1.92718000      5.94068000
  C     -0.60995200     -3.49565000     -4.04441000
  O     -0.90470100     -4.39824000     -4.96021000
  C      2.41325000      5.03199000     -0.76494800
  O      2.73888000      5.89360000     -1.82237000
  C     -1.08848000      6.03428000     -2.96104000
  O     -1.14139000      6.97706000     -3.83700000
  C      3.82439000     -4.21114000     -1.06625000
  O      4.96335000     -4.79861000     -1.18165000
  C      1.46626000     -0.74622600     -4.85114000
  O      1.72917000     -1.07351000     -6.10995000
  C     -3.03735000      2.33419000     -3.72876000
  O     -3.28400000      2.85940000     -4.90995000
  C      2.89121000     -0.96164600      4.55962000
  O      3.50558000     -1.16147000      5.68567000
  C      3.67966000      1.82009000     -3.43911000
  O      4.52032000      2.35712000     -4.31887000
  C     -0.16204700      0.30864000      4.96057000
  O     -0.26335900      0.57026600      6.21659000
  C     -2.57257000     -3.98485000     -1.18255000
  O     -3.06085000     -5.18469000     -1.27557000
  C      1.95610000      2.29101000      4.41959000
  O      2.58848000      2.93525000      5.43184000
  C      4.17941000     -2.21828000      2.10864000
  O      5.25779000     -2.74692000      2.70582000
  C     -5.62348000      1.01053000      0.54219100
  O     -6.62927000      1.73780000      0.85701500
  C      0.77794400     -3.24165000      4.31609000
  O      1.02557000     -4.04642000      5.34443000
  C      5.23845000     -0.71258600     -1.11951000
  O      6.51408000     -0.58779000     -0.57170000
  C      0.47763200     -5.24878000     -0.97749500
  O      0.66008400     -6.49023000     -1.33178000
  C      2.68415000      4.89901000      0.71730000
  O      3.20186000      5.65222000      1.77833000
  C     -5.27764000     -1.50074000     -0.13994200
  O     -6.59321000     -2.05473000     -0.31493200
  C      0.79706200      2.89008000     -4.65814000
  O      0.93920400      3.34233000     -5.88344000
  C      2.26971000     -3.52200000     -3.64973000
  O      2.83666000     -4.39407000     -4.49150000
  C     -4.14256000     -0.54589100      2.68699000
  O     -5.34557000     -0.60518000      3.17121000
  C      5.84486000      2.37786000     -0.99762300
  O      6.55113000      3.43517000     -0.80083600
  C     -2.30796000     -2.58110000      4.28247000
  O     -2.74496000     -3.00410000      5.49203000
  C     -4.17070000     -3.88936000      1.44250000
  O     -4.93219000     -4.65091000      2.15675000
  C     -0.24438900      3.69807000      4.69577000
  O     -0.42824200      4.89695000      5.13333000
  C      4.49377000      1.53484000      2.68202000
  O      5.68137000      1.76797000      3.20225000
  C     -4.70874000      1.20441000     -3.19078000
  O     -6.02230000      1.25183000     -3.45752000
  C     -0.26678200      5.31062000      0.78539300
  O     -0.38508600      6.63310000      0.72466800
  C      4.74244000     -0.78492800     -2.55550000
  O      5.39687000     -1.00524000     -3.78141000
  C     -3.43235000      3.62665000     -1.31402000
  O     -4.20307000      4.56514000     -1.78355000

