#B3LYP/6-31+G(d) OPT FREQ

110, Energy = -12783.05930547 au

0 1
 Ni     -0.05225070     -3.35348000     -2.68983000
 Ni     -1.33323000      0.05266990     -1.61277000
 Ni      0.24659700     -4.02763000     -0.20122800
 Ni     -0.18079100      4.48425000     -0.58713200
 Ni     -1.06538000      2.81678000     -2.65592000
 Ni     -3.31901000      0.92291400      0.23737200
 Ni     -0.97141200     -0.60918400      0.87193000
 Ni      0.08987010      3.75658000      1.85112000
 Ni      0.33526000     -1.03681000     -3.75459000
 Ni      3.12769000     -0.49531400     -1.14077000
 Ni      0.66792400     -1.46621000     -0.97105000
 Ni      2.31126000     -2.26547000     -2.82055000
 Ni      3.53751000      2.01581000     -1.71790000
 Ni      2.04129000     -0.25312400      3.35080000
 Ni      1.44198000      0.34502600      0.75065100
 Ni      2.74094000      0.18648500     -3.50073000
 Ni      1.47342000      3.44795000     -2.46233000
 Ni     -2.16851000     -1.74004000     -3.32525000
 Ni      3.51925000     -1.10107000      1.46238000
 Ni     -1.75553000     -2.58156000     -0.80281400
 Ni      3.97233000      1.32112000      0.74768900
 Ni      1.05065000      0.99913600     -1.72070000
 Ni     -1.82392000      0.68090500     -4.16043000
 Ni     -3.74842000     -0.92188100     -1.56191000
 Ni      2.33089000      2.07470000      2.55042000
 Ni     -0.21411500      1.26124000      2.72698000
 Ni      2.71452000     -3.13602000     -0.24144200
 Ni     -1.41915000     -3.29987000      1.61751000
 Ni     -2.61684000      3.41982000     -0.49948400
 Ni      1.98367000      3.13942000      0.18123400
 Ni     -2.25790000      2.80895000      1.92160000
 Ni     -2.73085000      0.14346300      2.82836000
 Ni      0.70506300      1.59339000     -4.22678000
 Ni     -0.56466400      1.85871000      0.09861700
 Ni     -3.38058000     -1.65093000      1.07372000
 Ni     -0.67873400     -1.29832000      3.53788000
 Ni     -3.54886000      1.47218000     -2.30253000
 Ni      1.05373000     -2.17728000      1.52716000
  C     -2.76058000     -1.11729000      4.32989000
  O     -3.50805000     -1.38523000      5.40303000
  C     -3.96203000     -2.29118000     -2.92726000
  O     -4.96713000     -2.90827000     -3.62913000
  C      1.36804000      3.27986000      3.80328000
  O      1.81013000      4.03949000      4.81587000
  C     -0.98813700      2.29976000     -4.63228000
  O     -1.21918000      3.04039000     -5.67394000
  C     -1.79406000      4.93977000      0.21473200
  O     -2.32403000      6.11696000      0.29428000
  C     -2.92349000      3.29422000     -2.35255000
  O     -3.51197000      4.20045000     -3.07759000
  C      2.63064000      2.31458000     -3.83607000
  O      3.30042000      2.97739000     -4.72586000
  C     -2.88687000     -3.33100000      2.86473000
  O     -3.45824000     -4.29728000      3.55943000
  C      2.92175000     -2.24256000      3.32652000
  O      3.63011000     -2.97360000      4.20689000
  C      1.14775000     -3.02329000     -4.09343000
  O      1.44611000     -3.74353000     -5.12839000
  C     -0.05354910      4.53633000     -2.45708000
  O     -0.19790300      5.58473000     -3.21109000
  C     -1.53167000     -4.53701000      0.17806100
  O     -2.09234000     -5.70075000      0.09155270
  C     -3.57087000      1.88766000      3.13236000
  O     -4.53607000      2.35262000      3.98672000
  C      3.30976000     -4.10479000      1.46663000
  O      4.12532000     -5.10429000      1.48617000
  C      5.00708000     -1.31017000      0.18991500
  O      6.29566000     -1.64672000      0.18178400
  C      2.94068000      3.80596000     -1.33375000
  O      3.58948000      4.93582000     -1.30441000
  C     -1.94788000     -4.04672000     -2.93577000
  O     -2.23267000     -5.17883000     -3.62601000
  C      1.92035000      0.59146100      5.07789000
  O      2.56918000      0.54861400      6.18889000
  C     -0.89624100      1.08549000      4.65110000
  O     -0.99264400      1.57772000      5.85502000
  C      5.14261000      1.51450000     -0.77712200
  O      6.44833000      1.92958000     -0.96547100
  C     -4.60311000     -0.42266900      1.74309000
  O     -5.92671000     -0.56130300      2.14238000
  C      1.01533000      4.97456000      0.77016300
  O      1.43836000      6.15109000      1.10961000
  C     -4.09312000      2.76049000      0.38851700
  O     -5.29217000      3.23104000      0.48851400
  C      3.59611000      3.01719000      1.50643000
  O      4.46838000      3.88529000      1.92047000
  C     -4.21555000     -2.96770000     -0.11549300
  O     -5.24295000     -3.82162000     -0.04766630
  C     -1.25286000     -1.00264000     -4.81130000
  O     -1.31086000     -1.53122000     -6.00045000
  C      4.06147000      0.42694900      2.48965000
  O      5.12448000      0.48136800      3.23844000
  C      0.33800300     -2.66516000      4.94580000
  O      0.16438000     -3.02155000      6.16135000
  C      0.35603500     -4.33834000      2.21885000
  O      0.64987800     -5.43375000      2.94934000
  C     -4.87333000      0.56239100     -1.33478000
  O     -6.16552000      0.57095600     -1.38930000
  C      4.81665000     -0.31515500     -2.63521000
  O      5.54508000     -0.45200000     -3.73137000
  C     -3.57191000      0.70445100     -3.93904000
  O     -4.44238000      0.80057600     -4.87024000
  C      1.49713000     -4.93602000     -1.63431000
  O      1.66758000     -6.27193000     -1.72805000
  C      4.14416000     -3.03951000     -1.76951000
  O      4.96726000     -3.88222000     -2.42149000
  C      1.45804000     -0.00543613     -4.89393000
  O      1.73408000     -0.31296500     -6.12902000
  C     -1.34708000      4.05363000      2.98874000
  O     -1.65262000      4.99122000      3.81868000

