#B3LYP/6-31+G(d) OPT FREQ

110, Energy = -12042.61310310 au

0 1
 Ni     -2.51846000      2.03866000     -1.69013000
 Ni      1.03187000      0.68262200     -0.80358400
 Ni     -3.21782000      1.90046000      0.92259600
 Ni      3.56173000     -3.09049000     -0.34123600
 Ni      2.67455000     -1.10582000     -1.77964000
 Ni      2.79280000      1.16533000      1.15093000
 Ni      0.27272300      0.49080100      1.72970000
 Ni      2.75278000     -3.30777000      2.27580000
 Ni     -0.71974600      0.25637700     -2.81280000
 Ni     -2.59529000     -2.61560000     -0.72018000
 Ni     -1.49094000      0.03559210     -0.22449100
 Ni     -3.28782000     -0.44101000     -2.20122000
 Ni     -0.61237600     -4.19928000     -1.75686000
 Ni     -1.48233000     -2.15206000      3.88126000
 Ni     -0.59598000     -1.93780000      1.25790000
 Ni     -1.50531000     -2.24383000     -3.26136000
 Ni      1.80099000     -3.46873000     -2.32345000
 Ni      0.01879780      2.73661000     -2.40228000
 Ni     -3.08870000     -2.51732000      1.93100000
 Ni     -0.60645800      2.52855000      0.23181600
 Ni     -1.39120000     -4.36861000      0.90084400
 Ni      0.15765200     -1.75951000     -1.22953000
 Ni      1.96256000      0.86665500     -3.36801000
 Ni      2.01296000      3.14455000     -0.32891000
 Ni      0.41137500     -3.98666000      2.82740000
 Ni      1.17773000     -1.51499000      3.31013000
 Ni     -3.97951000     -0.59389500      0.29798600
 Ni     -1.51747000      2.33070000      2.80398000
 Ni      4.44290000     -0.64228800      0.09820620
 Ni      1.10976000     -3.90071000      0.19765400
 Ni      3.62852000     -0.83303300      2.61608000
 Ni      2.12582000      0.98851500      3.70061000
 Ni      0.97036700     -1.63816000     -3.77977000
 Ni      1.90536000     -1.32079000      0.69003700
 Ni      1.06681000      3.13474000      2.25223000
 Ni     -0.50432600      0.18365500      4.33533000
 Ni      3.58080000      1.34278000     -1.33733000
 Ni     -2.31656000     -0.10354200      2.35532000
  C      5.08172000     -2.65917000      1.14656000
  O      5.90307000     -3.22441000      2.05608000
  C      0.13498500      4.94125000      2.40613000
  O      0.20095300      5.94257000      3.19481000
  C     -1.23613000      1.82837000     -4.54592000
  O     -1.58326000      2.03356000     -5.74695000
  C      5.65924000      0.88182300     -0.00704903
  O      6.93112000      1.15163000      0.15353300
  C     -0.50445900     -5.80233000     -0.29786000
  O     -0.53776800     -7.16805000     -0.42486700
  C     -2.94464000     -1.14591000     -4.17770000
  O     -3.76107000     -1.38287000     -5.23556000
  C     -4.69345000      0.73211400     -2.67524000
  O     -5.80548000      0.89080700     -3.30768000
  C     -2.04558000      4.86202000     -0.28404500
  O     -2.17439000      6.14250000     -0.34080400
  C      4.27768000      3.37493000      0.80654500
  O      5.07169000      4.24823000      1.31918000
  C     -4.09472000     -2.16899000      3.59273000
  O     -5.14491000     -2.79386000      4.06327000
  C     -0.12629800     -0.99065500     -5.19807000
  O     -0.23365800     -1.23281000     -6.49027000
  C     -1.48399000     -4.56300000      3.36737000
  O     -1.69389000     -5.64866000      4.17586000
  C      1.81145000     -3.21712000      3.96946000
  O      2.23389000     -3.64146000      5.17843000
  C     -2.41837000     -3.64619000     -2.32030000
  O     -3.26793000     -4.48232000     -2.82192000
  C     -3.22208000     -3.96681000      0.56754200
  O     -4.11921000     -4.90303000      0.54998700
  C      1.30772000      4.87902000     -0.16987900
  O      1.76089000      6.08754000     -0.25864400
  C      1.77755000     -4.87486000      1.76024000
  O      2.26678000     -6.06263000      1.87841000
  C      4.72759000     -2.33602000     -2.08748000
  O      5.97846000     -2.76629000     -2.03504000
  C     -2.89648000      3.72444000      2.33443000
  O     -3.66843000      4.53622000      3.04553000
  C      4.62290000      0.55794400      3.54898000
  O      5.65368000      0.61183900      4.36073000
  C     -0.85793600      2.08203000      4.80664000
  O     -1.10092000      2.68671000      5.99442000
  C     -3.40189000      1.09554000      3.67489000
  O     -4.25506000      1.07370000      4.67485000
  C      3.23708000      4.06798000     -2.83300000
  O      4.35686000      4.65782000     -3.07061000
  C      2.26558000      3.04713000      4.08542000
  O      2.88252000      3.88137000      4.91617000
  C      0.17495900     -3.76378000     -3.59814000
  O      0.15139200     -4.64193000     -4.55402000
  C      1.58808000      0.04373510      5.41187000
  O      2.01159000      0.05949500      6.69000000
  C      0.11521400      4.32816000     -3.49083000
  O      0.28914900      5.34590000     -4.20225000
  C      3.03834000     -1.84891000     -4.08442000
  O      3.95365000     -2.26966000     -4.94988000
  C      4.14042000      0.67350100     -4.32561000
  O      5.41562000      0.84150300     -4.27143000
  C      3.18189000     -5.01517000     -0.55111800
  O      3.59544000     -5.92476000     -1.44491000
  C     -1.89458000     -1.29146000      5.65986000
  O     -2.21888000     -1.66827000      6.87186000
  C      1.82723000      1.78866000     -5.39714000
  O      2.63792000      2.11416000     -6.34531000
  C     -4.92282000     -1.97985000     -0.78775700
  O     -6.13609000     -2.46522000     -1.07378000
  C     -5.20709000      0.47021700      1.29623000
  O     -6.50223000      0.52495100      1.53590000
  C     -4.48903000      2.69459000     -0.25879800
  O     -5.46780000      3.56519000     -0.17792600
  C     -2.60729000      3.52207000     -2.86877000
  O     -3.37130000      4.34570000     -3.50103000

