#B3LYP/6-31+G(d) OPT FREQ

110, Energy = -12241.67478708 au

0 1
 Ni      0.89025400     -3.43131000     -2.30272000
 Ni     -1.31209000     -0.58394200     -1.17318000
 Ni      1.43105000     -4.07941000     -0.01329760
 Ni     -1.29084000      3.93504000     -0.09027000
 Ni     -1.68083000      1.88091000     -1.88713000
 Ni     -3.01868000     -0.24631000      0.71858500
 Ni     -0.66324400     -1.14206000      1.24481000
 Ni     -0.67779300      3.36591000      2.23468000
 Ni      0.38641500     -0.85873400     -3.17142000
 Ni      3.08042000      0.10856300     -0.83354600
 Ni      1.05030000     -1.47649000     -0.65482800
 Ni      2.81241000     -1.79361000     -2.55094000
 Ni      2.74965000      2.69295000     -1.53264000
 Ni      1.98732000     -0.13049800      3.55332000
 Ni      1.34340000      0.44561500      1.06054000
 Ni      2.45307000      0.75320500     -3.33211000
 Ni      0.37108500      3.59433000     -2.04888000
 Ni     -1.64563000     -2.46313000     -2.95439000
 Ni      3.77889000     -0.40150300      1.59620000
 Ni     -0.96383300     -3.11426000     -0.40470400
 Ni      3.38192000      2.11981000      0.87464300
 Ni      0.70034100      1.00594000     -1.35329000
 Ni     -1.95188000     -0.04460610     -3.67062000
 Ni     -3.38960000     -2.24809000     -1.03533000
 Ni      1.64567000      2.45263000      2.81582000
 Ni     -0.38019100      0.75522800      2.98992000
 Ni      3.41393000     -2.44401000     -0.22040800
 Ni     -0.36451800     -3.73285000      1.93270000
 Ni     -3.43362000      2.21764000      0.05365810
 Ni      1.03478000      3.06815000      0.38895500
 Ni     -2.79759000      1.64500000      2.48559000
 Ni     -2.39695000     -0.88115400      3.18794000
 Ni      0.02032920      1.53789000     -3.83230000
 Ni     -1.01229000      1.33149000      0.54118400
 Ni     -2.64971000     -2.80876000      1.43703000
 Ni     -0.02575530     -1.73248000      3.73423000
 Ni     -3.70556000      0.24457500     -1.73629000
 Ni      1.69581000     -2.01680000      1.73146000
  C     -1.96741000      3.92599000     -2.41922000
  O     -2.57673000      4.87400000     -3.17848000
  C      3.21376000     -4.13235000      1.21580000
  O      4.26861000     -4.97321000      1.36103000
  C      4.99917000      1.63323000      2.03441000
  O      6.09197000      2.25568000      2.40813000
  C      5.29516000     -1.37949000      0.71914400
  O      6.56075000     -1.57428000      1.04889000
  C      3.04494000      3.84581000      0.13805500
  O      3.68527000      4.96319000      0.26182500
  C     -0.28649700      4.86874000      1.15520000
  O     -0.24819100      6.14435000      1.36284000
  C     -2.82752000      0.66016600      4.50748000
  O     -3.56249000      0.71115200      5.62451000
  C     -1.77714000     -2.36707000     -4.90634000
  O     -2.29758000     -3.20060000     -5.77673000
  C      3.06129000      1.49949000      4.16529000
  O      3.70144000      1.75173000      5.31620000
  C     -0.02723120     -0.03394100     -4.90349000
  O      0.06510930     -0.24948000     -6.17631000
  C     -0.53986700     -5.34100000      1.08411000
  O      0.10638300     -6.45201000      1.08704000
  C     -3.85353000     -4.16305000     -1.02546000
  O     -4.91982000     -4.73030000     -1.47632000
  C      3.30069000     -1.77549000      3.47552000
  O      4.19670000     -2.32691000      4.34864000
  C     -1.89991000     -2.78425000      3.90137000
  O     -2.37545000     -3.48938000      5.01408000
  C      1.67600000      4.45100000      2.87020000
  O      2.12720000      5.25184000      3.79560000
  C      3.32015000     -0.24872000     -4.70571000
  O      4.17591000     -0.06870050     -5.70632000
  C     -1.88089000     -4.82505000      1.29119000
  O     -2.90062000     -5.55903000      1.64730000
  C     -4.52487000      2.08514000     -1.83051000
  O     -5.72748000      2.62610000     -2.21376000
  C      1.30345000     -2.82366000     -4.25690000
  O      1.75778000     -3.44783000     -5.35684000
  C      2.32181000     -4.35618000     -1.59846000
  O      2.83402000     -5.43856000     -2.09640000
  C      0.80945000      5.42587000     -1.31060000
  O      0.98716800      6.49119000     -2.03178000
  C     -4.85365000      1.46415000      1.74088000
  O     -5.93343000      1.91403000      2.37435000
  C     -1.27968000     -4.61315000     -1.99096000
  O     -1.45005000     -5.86270000     -2.44621000
  C     -2.40778000      3.59963000      3.41499000
  O     -2.91793000      4.50183000      4.23242000
  C     -2.72071000      1.68098000     -4.30411000
  O     -3.22731000      2.04499000     -5.46390000
  C      4.70403000      1.11555000     -1.32402000
  O      5.97625000      1.24535000     -1.66604000
  C     -4.12202000     -1.34229000     -3.24642000
  O     -5.17157000     -1.44697000     -4.07760000
  C      0.55582100     -0.72171200      5.43192000
  O      0.75819800     -1.14209000      6.66185000
  C     -4.31873000     -1.76831000      2.29207000
  O     -5.44196000     -2.20786000      2.87832000
  C     -0.05378390      1.96853000      4.57947000
  O     -0.17625700      2.34059000      5.84388000
  C     -5.12891000     -0.86032300     -0.18535100
  O     -6.45952000     -0.84051300     -0.19236800
  C      3.32210000      3.20086000     -3.44501000
  O      4.18276000      4.02582000     -3.92883000
  C      0.59746800      3.42436000     -4.40604000
  O      0.68108100      3.96113000     -5.60196000
  C     -3.28781000      4.27530000      0.48441900
  O     -4.12882000      5.32270000      0.47447800
  C      4.85625000     -2.01948000     -1.94585000
  O      5.80814000     -2.62523000     -2.64270000
  C      1.16991000     -3.66838000      3.52318000
  O      1.46967000     -4.72716000      4.29622000

