#B3LYP/6-31+G(d) OPT FREQ

110, Energy = -12505.10784873 au

0 1
 Ni      1.28872000     -4.07387000     -1.23414000
 Ni      0.10026000     -0.40212300     -1.59087000
 Ni     -0.73036200     -4.44540000      0.42160200
 Ni      0.58398600      3.92681000      0.06041290
 Ni      1.29310000      2.04679000     -1.70630000
 Ni     -2.22274000      0.82299700     -1.77735000
 Ni     -1.74672000     -0.92224600      0.18587400
 Ni     -1.27585000      3.32076000      1.95260000
 Ni      2.51224000     -1.73671000     -1.40404000
 Ni      2.39007000     -1.53631000      2.29970000
 Ni      0.55647100     -2.08827000      0.34904600
 Ni      2.96701000     -3.31846000      0.53141800
 Ni      3.43069000      1.00131000      2.08370000
 Ni     -1.82691000     -0.67846900      3.83795000
 Ni     -0.07668450     -0.26990100      2.06171000
 Ni      4.09908000     -0.77355600      0.51813200
 Ni      3.05109000      2.61435000      0.23706200
 Ni      0.75966000     -2.25489000     -3.35657000
 Ni      0.41189800     -1.91542000      4.05239000
 Ni     -1.18434000     -2.85446000     -1.73269000
 Ni      1.60812000      0.50421700      4.01972000
 Ni      1.73445000      0.25810900      0.29726200
 Ni      1.99438000      0.19753300     -3.54738000
 Ni     -1.63733000     -1.04780000     -3.58676000
 Ni     -0.73192900      1.60649000      3.73606000
 Ni     -2.45668000      0.94167100      1.86069000
 Ni      1.12552000     -3.87779000      2.18110000
 Ni     -2.98281000     -3.25654000      0.16313300
 Ni     -1.07355000      3.21321000     -1.78992000
 Ni      1.02128000      2.10256000      2.04281000
 Ni     -3.01394000      2.60348000     -0.00844340
 Ni     -4.13785000      0.27631100      0.11351600
 Ni      3.67569000      0.92309900     -1.36011000
 Ni     -0.58192300      1.44583000      0.13601400
 Ni     -3.48323000     -1.57813000     -1.71205000
 Ni     -3.70273000     -1.53000000      1.93363000
 Ni     -0.36597200      1.33799000     -3.61488000
 Ni     -1.29097000     -2.82339000      2.28609000
  C      1.91247000      2.58381000      4.33807000
  O      2.23037000      3.19102000      5.45351000
  C     -4.96406000      1.84418000      1.20724000
  O     -6.24249000      2.13881000      1.40607000
  C     -1.42988000      4.04814000      3.69998000
  O     -1.56999000      4.40379000      4.90146000
  C      0.46654200      4.74871000      1.98537000
  O      0.60841500      5.97563000      2.52310000
  C      4.59400000     -0.72343900     -1.92760000
  O      5.78575000     -1.01571000     -2.53966000
  C     -3.79103000      3.03759000     -1.67733000
  O     -4.81391000      3.79388000     -2.06239000
  C      4.75968000      1.25661000      0.57219900
  O      5.96761000      1.62923000      0.69567400
  C     -0.13633700     -3.70598000      3.57443000
  O     -0.39052800     -4.71401000      4.35517000
  C      1.12818000     -5.21368000      0.53269600
  O      1.30439000     -6.48609000      0.61832200
  C     -2.85794000      0.37224400     -4.11931000
  O     -3.73128000      0.63273700     -5.09568000
  C      0.41799400     -4.33909000     -3.08933000
  O      0.52738000     -5.48814000     -3.84597000
  C     -0.38655500     -1.77714000     -4.92725000
  O     -0.53472600     -2.31879000     -6.17555000
  C      2.95381000     -3.56907000      2.39435000
  O      3.79627000     -4.32148000      3.03188000
  C      4.04166000      2.84359000     -1.97815000
  O      5.08789000      3.46533000     -2.47349000
  C      2.62804000     -2.16181000     -3.85415000
  O      3.41886000     -2.80989000     -4.74976000
  C     -2.46096000     -4.19681000      1.78344000
  O     -3.11896000     -5.10763000      2.40583000
  C     -2.81976000     -2.51707000     -3.29570000
  O     -3.50610000     -3.19467000     -4.13704000
  C     -2.61578000     -2.46192000      4.13599000
  O     -2.91661000     -3.04259000      5.33763000
  C     -1.04792000      5.10788000     -0.82275500
  O     -1.30440000      6.37224000     -1.13295000
  C      3.33898000      3.32007000      2.13694000
  O      4.11913000      4.29259000      2.65242000
  C      2.73903000     -1.57098000      4.78625000
  O      2.75468000     -2.01501000      6.08510000
  C      5.02190000     -2.47361000      1.02805000
  O      6.29424000     -2.83732000      1.18011000
  C     -5.67169000     -1.52584000      1.85416000
  O     -6.58025000     -1.89131000      2.68826000
  C     -3.08717000      4.07496000      1.58035000
  O     -3.79427000      5.15578000      1.95329000
  C      0.14923500      0.77395000     -5.35937000
  O      0.09395600      1.24099000     -6.57784000
  C     -1.70659000      3.13720000     -3.64908000
  O     -2.15614000      4.04195000     -4.53647000
  C      3.36656000      1.15155000     -4.60317000
  O      3.92326000      1.17389000     -5.74794000
  C     -1.91677000     -4.48811000     -1.02600000
  O     -2.40275000     -5.54362000     -1.60291000
  C     -4.82845000      0.03166500     -1.83060000
  O     -6.08019000      0.13429500     -2.37096000
  C     -0.26738500      0.17826200      5.08943000
  O     -0.42446400      0.43943300      6.34825000
  C      3.68463000     -0.33800100      3.61772000
  O      4.83050000     -0.35404600      4.21578000
  C     -3.28667000      1.07631000      3.77749000
  O     -4.32479000      1.53342000      4.50190000
  C      1.06063000      3.35203000     -3.33530000
  O      1.64212000      4.32293000     -4.06657000
  C      3.21633000     -3.91680000     -1.21790000
  O      4.12126000     -4.75424000     -1.58901000
  C     -4.63464000     -2.64993000     -0.57202800
  O     -5.79009000     -3.37104000     -0.86429400
  C      2.37927000      4.57328000     -0.79380700
  O      2.88301000      5.80386000     -0.90020300

