#B3LYP/6-31+G(d) OPT FREQ

110, Energy = -12380.52764982 au

0 1
 Ni      0.67941100     -3.17549000     -2.14435000
 Ni     -1.21919000     -0.05093330     -1.11737000
 Ni      0.71993300     -3.88965000      0.34298300
 Ni     -0.82211800      4.34952000      0.08654610
 Ni     -1.13324000      2.57025000     -1.74719000
 Ni     -3.46660000      0.46069000      0.51474300
 Ni     -1.13878000     -0.78186600      1.33978000
 Ni     -0.67777100      3.53508000      2.56978000
 Ni      0.83237200     -0.59351800     -2.85608000
 Ni      3.11541000     -0.02534150      0.08790990
 Ni      0.86325000     -1.30349000     -0.22833600
 Ni      2.91822000     -1.83972000     -1.86481000
 Ni      3.24430000      2.55416000     -0.51974500
 Ni      1.13423000     -0.20073300      4.16609000
 Ni      1.07679000      0.48747100      1.64316000
 Ni      3.03727000      0.71347100     -2.43196000
 Ni      1.14439000      3.85595000     -1.40628000
 Ni     -1.42782000     -1.90094000     -3.12092000
 Ni      3.17287000     -0.77906200      2.55716000
 Ni     -1.36107000     -2.62023000     -0.54191700
 Ni      3.33350000      1.73826000      1.97736000
 Ni      0.99665700      1.22536000     -0.82720900
 Ni     -1.33925000      0.65239900     -3.61064000
 Ni     -3.44230000     -1.40525000     -1.43478000
 Ni      1.19354000      2.36509000      3.55667000
 Ni     -1.02629000      0.98012200      3.43007000
 Ni      2.90693000     -2.61050000      0.72291900
 Ni     -1.28782000     -3.32306000      1.94714000
 Ni     -3.03731000      2.97330000     -0.20237800
 Ni      1.33950000      3.20783000      1.05756000
 Ni     -2.99858000      2.19339000      2.21597000
 Ni     -3.22823000     -0.38624900      2.93309000
 Ni      1.00510000      1.99768000     -3.44292000
 Ni     -0.98079200      1.72978000      0.74890900
 Ni     -3.44307000     -2.09405000      1.04243000
 Ni     -1.09704000     -1.46878000      3.83562000
 Ni     -3.44240000      1.28706000     -2.06156000
 Ni      0.98431500     -2.04500000      2.24103000
  C     -4.56626000      2.10977000      0.16382100
  O     -5.76537000      2.48384000      0.21613300
  C      4.56070000      3.10431000      1.35478000
  O      5.68370000      3.59536000      1.80684000
  C      0.13349900     -2.98185000      4.29177000
  O      0.37425500     -3.67561000      5.41263000
  C      4.96894000     -0.34368800      2.03265000
  O      6.14316000     -0.63608500      2.55664000
  C      2.61890000      4.31406000     -0.32941100
  O      3.31943000      5.40453000     -0.30324800
  C     -1.19155000     -4.72848000     -0.72049900
  O     -1.77759000     -5.88715000     -0.99063800
  C      0.06984260     -4.86448000      2.16891000
  O      0.04270870     -6.12965000      2.62569000
  C     -3.43470000     -2.74747000     -3.04910000
  O     -4.27340000     -3.38485000     -3.85957000
  C     -2.51013000      4.16073000      1.50862000
  O     -3.15021000      5.21741000      1.89824000
  C     -3.85884000     -3.55022000     -0.24824700
  O     -4.84327000     -4.44876000     -0.15400200
  C     -2.65219000      3.92210000     -1.74294000
  O     -3.22238000      4.87534000     -2.38047000
  C      2.94321000     -3.58270000      2.43367000
  O      3.64356000     -4.53740000      3.01620000
  C     -1.38185000      2.49013000     -4.26961000
  O     -1.75386000      3.16996000     -5.36222000
  C     -3.91679000      1.42345000      3.84673000
  O     -4.98915000      1.98332000      4.45904000
  C      0.32274100      5.96976000     -0.20154400
  O     -0.07215030      7.20963000     -0.32269000
  C      4.01649000     -0.77686400     -3.44570000
  O      4.98981000     -0.93181400     -4.33542000
  C      4.52731000     -2.46446000     -0.45857900
  O      5.65485000     -3.19360000     -0.60095000
  C     -0.66987100      2.62946000      4.34325000
  O     -1.16882000      3.43194000      5.23607000
  C      0.86284100     -1.39816000     -4.58083000
  O      1.25461000     -1.63188000     -5.79355000
  C      0.44956600      4.30144000     -3.28225000
  O      0.71689300      5.41229000     -3.97304000
  C     -3.07483000     -3.25811000      2.99760000
  O     -3.69984000     -4.29141000      3.61541000
  C     -4.67497000     -0.91541700      1.83536000
  O     -5.90656000     -1.05429000      2.23627000
  C     -4.31994000      1.29782000     -3.75914000
  O     -5.38519000      1.62475000     -4.34238000
  C     -0.55043500     -3.81224000     -3.63285000
  O     -0.68042100     -4.82120000     -4.49128000
  C      2.74429000     -1.43130000      4.61362000
  O      3.48018000     -1.70957000      5.70059000
  C      2.10553000     -4.73379000     -0.78201800
  O      2.42630000     -6.02970000     -0.87384800
  C      1.18827000      4.25101000      2.61263000
  O      1.64442000      5.41008000      2.95936000
  C     -5.10753000     -0.45751100     -1.08415000
  O     -6.41757000     -0.70860400     -1.27340000
  C     -2.64681000     -0.77748300      4.76549000
  O     -3.29398000     -0.95055200      5.85008000
  C      3.00265000      1.72922000      4.33102000
  O      3.64650000      2.34067000      5.35033000
  C      3.51157000      2.71550000     -2.76316000
  O      4.54829000      3.32387000     -3.40861000
  C      1.79387000      1.41043000     -5.06377000
  O      2.16798000      1.85510000     -6.21364000
  C      4.82136000      0.64336600     -0.82219300
  O      6.20007000      0.64682200     -0.85629700
  C     -0.13018900      0.81133600      5.14517000
  O     -0.32947600      0.73210700      6.41948000
  C      2.54539000     -3.52753000     -3.12473000
  O      3.20816000     -4.40306000     -3.86152000
  C     -1.96508000     -0.86241200     -4.87009000
  O     -2.39231000     -1.08343000     -6.12043000

