#B3LYP/6-31+G(d) OPT FREQ

110, Energy = -12501.40663818 au

0 1
 Ni      0.41503000     -3.53603000     -2.27987000
 Ni     -1.35371000     -0.51884200     -0.89811600
 Ni      1.39351000     -4.04444000     -0.01265520
 Ni     -0.96178200      3.96548000     -0.08936100
 Ni     -1.68560000      2.01442000     -1.74766000
 Ni     -2.71607000     -0.01098390      1.24510000
 Ni     -0.31984900     -1.04634000      1.40046000
 Ni      0.04488550      3.45486000      2.14069000
 Ni      0.04583260     -1.03100000     -3.16308000
 Ni      3.25425000     -0.08157390     -1.33878000
 Ni      1.01626000     -1.54858000     -0.74086600
 Ni      2.38981000     -2.05089000     -2.98256000
 Ni      2.67200000      2.46271000     -2.18458000
 Ni      2.83504000     -0.06475210      3.15333000
 Ni      1.72341000      0.40429900      0.80662000
 Ni      2.08613000      0.42412900     -3.71032000
 Ni      0.38264900      3.43196000     -2.39656000
 Ni     -2.06385000     -2.48002000     -2.45297000
 Ni      4.16036000     -0.57879800      1.07034000
 Ni     -1.09386000     -3.05210000     -0.08372530
 Ni      3.85255000      1.84295000      0.28491200
 Ni      0.69913400      0.91816400     -1.50284000
 Ni     -2.42110000      0.01994510     -3.24352000
 Ni     -3.43932000     -2.08602000     -0.28920700
 Ni      2.43434000      2.38243000      2.34673000
 Ni      0.39416100      0.91940000      2.95092000
 Ni      3.35660000     -2.59758000     -0.63809600
 Ni      0.04819060     -3.63881000      2.14347000
 Ni     -3.06477000      2.44557000      0.51342100
 Ni      1.40103000      2.99197000      0.01533690
 Ni     -2.02558000      1.94937000      2.83304000
 Ni     -1.70419000     -0.57357100      3.60346000
 Ni     -0.29683400      1.56983000     -3.86820000
 Ni     -0.65411900      1.43024000      0.64430100
 Ni     -2.39166000     -2.54633000      1.97938000
 Ni      0.73398800     -1.54157000      3.70664000
 Ni     -3.87806000      0.47773800     -1.03070000
 Ni      2.20205000     -2.18193000      1.64869000
  C      4.09576000      1.42017000      2.51202000
  O      5.10019000      1.86125000      3.20502000
  C     -2.09367000     -2.64495000      4.11756000
  O     -2.84879000     -3.35152000      4.97294000
  C      5.15675000     -2.52475000      0.33629200
  O      6.20148000     -3.32256000      0.16578100
  C     -0.86407500      5.18294000     -1.76849000
  O     -1.08796000      6.49357000     -1.82769000
  C     -1.68335000      4.49038000      1.78978000
  O     -2.00055000      5.70089000      2.38160000
  C     -4.04905000      2.68129000      2.33201000
  O     -5.04637000      3.45731000      2.77858000
  C     -4.77940000     -1.72794000     -1.84606000
  O     -5.96882000     -2.28286000     -2.01279000
  C     -3.17454000     -3.72850000      0.79642700
  O     -3.91680000     -4.76164000      1.00368000
  C      1.44236000      3.63007000      3.74074000
  O      1.94983000      4.54353000      4.58343000
  C     -0.12948200     -3.18117000     -4.10036000
  O     -0.12276900     -3.97933000     -5.13385000
  C      2.48909000     -3.87839000     -2.13404000
  O      3.13198000     -4.79719000     -2.78766000
  C      1.51249000     -3.41559000      3.99536000
  O      1.74989000     -3.93666000      5.20554000
  C     -3.49160000      0.62008600      3.81903000
  O     -4.34111000      0.74251200      4.85078000
  C     -1.07787000      0.14530600     -5.04162000
  O     -1.32066000      0.10280800     -6.38476000
  C      1.86373000     -1.22181000     -4.55930000
  O      2.17762000     -1.52896000     -5.77307000
  C      3.96970000     -1.15263000     -2.70579000
  O      5.08626000     -1.27682000     -3.33089000
  C     -3.96929000      1.38260000     -3.17142000
  O     -4.90390000      1.65012000     -4.09726000
  C     -4.51353000     -1.27438000      1.71757000
  O     -5.72896000     -1.42331000      2.23065000
  C     -1.20391000      3.13952000     -3.58759000
  O     -1.73094000      3.93071000     -4.45424000
  C     -0.93606500      2.54902000      4.38489000
  O     -1.15327000      3.19538000      5.52871000
  C     -0.50171400     -0.41637500      5.25982000
  O     -0.72129000     -0.57195900      6.54581000
  C      1.29242000      4.64368000      0.94039600
  O      1.79438000      5.84704000      1.02509000
  C     -2.86350000     -1.71765000     -4.11516000
  O     -3.65856000     -2.18982000     -5.11608000
  C      5.10077000      0.52274200     -0.10941400
  O      6.39180000      0.53428600     -0.15580100
  C      3.85958000     -1.55983000      2.78639000
  O      4.78405000     -2.08459000      3.52293000
  C      4.32694000      1.59118000     -2.89622000
  O      5.36696000      2.15293000     -3.51297000
  C      2.05866000      4.20228000     -2.32044000
  O      2.46549000      5.29073000     -2.86671000
  C      3.83682000      3.85826000     -0.07199430
  O      4.92125000      4.59297000      0.08562510
  C      0.05789280     -5.21538000     -1.14722000
  O      0.20849300     -6.56176000     -1.21515000
  C      1.94195000      0.50680200      4.91934000
  O      2.51441000      0.75845700      6.09449000
  C     -0.77542800     -5.44294000      1.77415000
  O     -0.86229700     -6.41412000      2.60596000
  C     -3.46971000      3.53452000     -1.12491000
  O     -4.37910000      4.44256000     -1.48229000
  C     -2.30927000     -4.35520000     -1.81483000
  O     -2.87492000     -5.45957000     -2.28429000
  C     -5.40894000      1.20155000      0.13612500
  O     -6.64127000      1.38093000     -0.17743300
  C      2.42772000     -4.15081000      1.47586000
  O      3.11577000     -5.12230000      1.93484000
  C      1.43429000      2.10739000     -4.31916000
  O      1.75817000      2.59140000     -5.47888000

