#B3LYP/6-31+G(d) OPT FREQ

110, Energy = -12472.23036758 au

0 1
 Ni     -3.35872000     -1.87320000     -2.31750000
 Ni     -1.15764000      1.00121000     -1.30143000
 Ni     -3.24938000     -2.81605000      0.03392050
 Ni      3.17351000      2.57719000     -0.75905100
 Ni      0.96759000      2.36940000     -2.42401000
 Ni     -1.21704000      2.72799000      0.71301900
 Ni     -1.19380000      0.12113400      1.14058000
 Ni      3.02241000      1.70391000      1.81267000
 Ni     -1.12842000     -0.65784500     -3.57173000
 Ni      1.01494000     -2.90447000     -1.32724000
 Ni     -1.14891000     -1.52870000     -0.86997300
 Ni     -1.15517000     -3.17474000     -2.85899000
 Ni      3.15362000     -1.59693000     -2.31612000
 Ni      1.02367000     -2.15315000      3.15771000
 Ni      0.98044700     -1.24164000      0.65121300
 Ni      1.07643000     -1.99282000     -3.77035000
 Ni      3.12830000      0.88562400     -2.80276000
 Ni     -3.22949000      0.63285000     -2.89956000
 Ni      1.10845000     -3.89561000      1.12808000
 Ni     -3.54857000     -0.15428400     -0.43434100
 Ni      3.28681000     -2.69611000      0.23010200
 Ni      0.96759500     -0.32324200     -1.78701000
 Ni     -1.12923000      1.83379000     -3.90808000
 Ni     -3.35568000      2.34585000     -0.82338600
 Ni      3.12213000     -0.93030600      2.18653000
 Ni      0.91164800      0.43585400      2.71262000
 Ni     -1.12992000     -4.10732000     -0.48039800
 Ni     -3.29511000     -1.16017000      2.04049000
 Ni      0.86935300      3.91305000     -0.21771500
 Ni      3.08408000     -0.01012110     -0.27501400
 Ni      0.80497100      3.10528000      2.34052000
 Ni     -1.29220000      1.87110000      3.22046000
 Ni      1.05625000      0.49567300     -4.31147000
 Ni      0.92916200      1.33196000      0.21270300
 Ni     -3.44945000      1.51133000      1.65720000
 Ni     -1.14793000     -0.81986600      3.61759000
 Ni     -1.26336000      3.67017000     -1.76540000
 Ni     -1.08961000     -2.43286000      1.56716000
  C      2.61622000     -0.89853000     -4.34257000
  O      3.31625000     -1.15071000     -5.40442000
  C     -0.93340600      5.27153000     -0.76667200
  O     -1.17710000      6.57976000     -0.92778800
  C     -2.27182000     -0.78988500      5.29874000
  O     -2.60021000     -1.08325000      6.49977000
  C      4.85843000     -0.31321300      1.03200000
  O      6.18876000     -0.34000400      1.08638000
  C     -4.71962000      1.44794000      0.23394500
  O     -5.98659000      1.69347000      0.28311800
  C     -3.06650000      2.07234000      3.99234000
  O     -3.68841000      2.69482000      4.96230000
  C      1.02138000     -1.21839000      4.87381000
  O      1.44533000     -1.46092000      6.10585000
  C      0.01960990     -3.80288000      3.41448000
  O     -0.10499000     -4.75812000      4.33293000
  C     -0.43175900      3.59943000     -3.55536000
  O     -0.44185100      4.57118000     -4.40073000
  C     -0.18136200     -5.20332000     -1.97067000
  O     -0.24332800     -6.40294000     -2.53629000
  C     -3.34719000      3.65440000     -2.30695000
  O     -4.29948000      4.57988000     -2.59763000
  C      4.32775000      3.01745000      0.84658300
  O      5.50778000      3.61616000      1.09704000
  C     -0.25193700     -3.16916000     -4.71561000
  O     -0.24084000     -3.93415000     -5.84121000
  C      5.12523000     -3.44075000      0.35349900
  O      5.79151000     -4.52100000      0.36581400
  C     -0.69551800      4.28448000      2.91418000
  O     -0.83110300      5.43050000      3.56248000
  C     -3.20000000      3.70602000      1.36618000
  O     -3.85257000      4.84215000      1.59812000
  C     -0.58743500      0.41002300     -5.15180000
  O     -0.80081000      0.25812200     -6.42151000
  C     -3.03150000     -3.81394000     -1.69798000
  O     -3.82247000     -4.72879000     -2.17213000
  C      2.11568000     -5.72553000      0.60788700
  O      2.09696000     -6.92255000      1.04631000
  C     -5.01989000     -1.93780000      0.43446500
  O     -6.22185000     -2.55327000      0.40056400
  C      2.51091000      3.14952000      3.45730000
  O      3.10210000      3.89730000      4.38864000
  C      1.97885000      4.73519000      1.16859000
  O      2.38671000      5.99852000      1.35263000
  C      2.18089000      2.01174000     -4.04970000
  O      2.66626000      2.69843000     -5.03223000
  C     -3.08898000      1.94482000     -4.36313000
  O     -3.77564000      2.25472000     -5.50305000
  C      3.65582000      0.42037200      3.58907000
  O      4.60269000      0.47028300      4.53627000
  C      4.93818000     -0.85856300     -1.98603000
  O      6.10991000     -1.25097000     -2.45631000
  C     -4.67238000     -0.51842000     -2.13767000
  O     -5.90033000     -0.42597400     -2.51274000
  C     -4.61284000      0.08987440      2.74727000
  O     -5.72219000      0.03515060      3.51889000
  C     -2.25886000     -4.79018000      1.10356000
  O     -2.52902000     -6.07374000      1.25624000
  C     -2.97527000     -2.89935000      2.99939000
  O     -3.65105000     -3.87146000      3.61341000
  C      4.77955000      1.81464000     -1.99513000
  O      5.88237000      2.34819000     -2.55365000
  C      2.69495000     -3.79400000     -2.32225000
  O      3.13548000     -4.88720000     -2.96388000
  C      2.94462000     -2.77749000      2.79330000
  O      3.78103000     -3.47847000      3.66075000
  C      0.06080420      1.68147000      4.67351000
  O      0.24275400      2.03990000      5.93885000
  C      2.39390000      4.22926000     -1.77042000
  O      2.90324000      5.32596000     -2.42647000
  C     -2.68633000     -1.52232000     -4.12373000
  O     -3.19501000     -1.88439000     -5.24040000

