#B3LYP/6-31+G(d) OPT FREQ

110, Energy = -12662.06507120 au

0 1
 Ni      0.29461500     -3.63168000     -1.95198000
 Ni     -1.12087000     -0.31991000     -0.96837900
 Ni      0.47165000     -4.36445000      0.54075500
 Ni     -0.03713200      4.09037000      0.05218010
 Ni     -0.74649900      2.17409000     -1.74864000
 Ni     -2.87589000      0.53384100      0.73708200
 Ni     -0.87859100     -0.97890100      1.53808000
 Ni      0.12903700      3.32049000      2.68903000
 Ni      0.63768500     -1.12570000     -2.70157000
 Ni      3.36483000     -0.86130900     -0.21594300
 Ni      0.86871500     -1.81269000     -0.16235700
 Ni      2.67775000     -2.60349000     -1.92772000
 Ni      3.73205000      1.78402000     -0.82439100
 Ni      1.84522000     -0.60432100      4.08300000
 Ni      1.48805000      0.01644570      1.58429000
 Ni      3.21120000     -0.12719800     -2.68833000
 Ni      1.74385000      3.25483000     -1.62677000
 Ni     -1.71825000     -2.19029000     -2.81000000
 Ni      3.55484000     -1.36910000      2.35176000
 Ni     -1.50033000     -2.92426000     -0.16490900
 Ni      3.91134000      1.01788000      1.73147000
 Ni      1.28285000      0.67877100     -0.90551900
 Ni     -1.43283000      0.38727000     -3.62660000
 Ni     -3.56486000     -1.27542000     -1.06416000
 Ni      2.09980000      1.84447000      3.37047000
 Ni     -0.26621300      0.80708100      3.44065000
 Ni      2.83606000     -3.32201000      0.61014100
 Ni     -1.29172000     -3.57722000      2.34819000
 Ni     -2.50520000      3.13093000     -0.01252020
 Ni      2.06055000      2.78076000      0.97368500
 Ni     -2.26922000      2.39981000      2.67111000
 Ni     -2.62074000     -0.17936300      3.26809000
 Ni      1.12064000      1.41786000     -3.50867000
 Ni     -0.48678700      1.51387000      0.81544300
 Ni     -3.29423000     -1.93163000      1.49556000
 Ni     -0.63933100     -1.66671000      4.10275000
 Ni     -3.20999000      1.22554000     -1.83199000
 Ni      1.14407000     -2.63042000      2.59065000
  C      0.06572730     -0.33877500      5.39730000
  O      0.77938900     -0.29694300      6.49894000
  C      2.76089000     -2.24063000      3.84425000
  O      3.52115000     -2.88082000      4.68196000
  C     -3.21189000     -3.10444000      3.09843000
  O     -4.17854000     -3.90569000      3.64020000
  C      4.84907000     -2.48883000      0.84436300
  O      5.59193000     -3.52740000      0.75759800
  C     -0.96939100     -2.73614000     -4.49212000
  O     -1.30088000     -3.44346000     -5.52354000
  C     -2.56845000      0.38668400     -5.12341000
  O     -3.00052000      0.53762100     -6.30095000
  C      4.28000000     -1.63256000     -2.15020000
  O      5.37052000     -2.14871000     -2.61547000
  C     -0.52720500      2.49411000      4.25190000
  O     -0.63924700      2.80948000      5.50023000
  C      5.17475000     -0.89346600      1.29610000
  O      6.34906000     -0.49295000      1.70444000
  C      4.05198000      2.70607000      0.90846400
  O      4.95910000      3.58890000      1.21519000
  C     -2.40363000      2.93616000     -3.06081000
  O     -2.83743000      3.88758000     -3.87381000
  C      1.75292000     -4.30660000      1.93862000
  O      2.11466000     -5.34338000      2.63970000
  C      1.90648000      3.70182000      3.21959000
  O      2.36324000      4.64848000      3.96674000
  C     -4.54815000     -0.07123280      2.64703000
  O     -5.67174000      0.04562640      3.34937000
  C     -2.79860000      4.95212000     -0.51145700
  O     -3.67599000      5.88428000     -0.51816300
  C      0.58350000      3.10141000     -4.28663000
  O      0.66466400      3.63485000     -5.46165000
  C     -1.59288000     -0.42713300      5.16417000
  O     -2.54081000     -0.56688500      6.06576000
  C     -1.02263000      4.76238000      1.70332000
  O     -1.15287000      6.04740000      2.21026000
  C     -3.46010000     -3.60230000     -0.40998700
  O     -4.20747000     -4.70839000     -0.54483300
  C     -1.16393000     -5.03908000      1.17054000
  O     -1.52683000     -6.25802000      1.38130000
  C     -4.90099000      0.74391900     -2.58192000
  O     -5.93963000      1.21009000     -3.17190000
  C     -1.17643000     -4.90916000     -1.84801000
  O     -1.43522000     -6.06490000     -2.42364000
  C     -4.45470000      2.11182000      0.32149000
  O     -5.71934000      2.48443000      0.53582500
  C      3.40257000      0.99483500     -4.34016000
  O      4.23641000      1.10763000     -5.34064000
  C      1.79727000      4.50201000      0.17818700
  O      2.36932000      5.64782000      0.37031700
  C      5.30270000      0.41836500     -1.54652000
  O      6.48197000      0.98623700     -1.79115000
  C     -0.29888800     -3.48714000      3.93548000
  O     -0.29688500     -4.26912000      4.97288000
  C      1.71340000     -3.06941000     -3.85492000
  O      2.22666000     -3.71360000     -4.90094000
  C      0.65284000     -0.21746800     -4.88683000
  O      0.88336500     -0.47464200     -6.18407000
  C      3.53826000      3.42829000     -2.56516000
  O      4.20532000      4.39663000     -3.15371000
  C     -0.02170370      4.70103000     -1.99093000
  O     -0.11776700      5.93822000     -2.50743000
  C     -5.09122000     -1.16168000      0.22311000
  O     -6.39953000     -1.44365000      0.14019200
  C      1.98865000     -4.49822000     -0.99523400
  O      2.45073000     -5.66366000     -1.32684000
  C     -3.82052000      3.11940000      3.46147000
  O     -4.41255000      3.94390000      4.22479000
  C      3.60054000      0.66678100      3.73224000
  O      4.45137000      0.94768100      4.67352000
  C     -3.92499000     -1.94565000     -2.94575000
  O     -4.91287000     -2.46036000     -3.67081000

