110
Energy = -12237.37554818 au
 Ni     -3.11849000     -1.16102000     -2.46177000
 Ni     -0.34399500      1.01880000     -1.32565000
 Ni     -4.10383000     -1.29432000      0.00012641
 Ni      3.98734000      1.13293000      0.19791100
 Ni      2.22623000      1.14681000     -1.79460000
 Ni     -0.16456500      3.08868000      0.24828300
 Ni     -1.20989000      0.88142300      1.11078000
 Ni      3.03126000      1.02076000      2.62592000
 Ni     -0.55300500     -1.04128000     -2.89917000
 Ni      0.03378520     -3.31111000     -0.06408440
 Ni     -1.42462000     -1.17618000     -0.45285300
 Ni     -1.57225000     -3.31074000     -2.02666000
 Ni      2.70921000     -3.12477000     -0.49538100
 Ni     -0.67182800     -1.37396000      3.96520000
 Ni      0.26874200     -1.19157000      1.49938000
 Ni      0.95583300     -3.09092000     -2.48090000
 Ni      3.73898000     -0.96574300     -1.35552000
 Ni     -2.04303000      1.07791000     -3.36426000
 Ni     -0.80680200     -3.43705000      2.36427000
 Ni     -2.88637000      0.89524500     -0.87879200
 Ni      1.72426000     -3.32279000      1.89498000
 Ni      1.12843000     -1.06476000     -0.90955300
 Ni      0.50273100      1.19706000     -3.83987000
 Ni     -1.89159000      3.23437000     -1.77823000
 Ni      1.96338000     -1.23146000      3.49625000
 Ni      0.43156300      0.95475600      3.14496000
 Ni     -2.48713000     -3.42774000      0.40433300
 Ni     -3.76284000      0.82632800      1.61546000
 Ni      2.39438000      3.19270000     -0.22226800
 Ni      2.84350000     -1.10459000      1.04986000
 Ni      1.50042000      3.09927000      2.28807000
 Ni     -1.12192000      2.96158000      2.70527000
 Ni      2.01297000     -0.89960600     -3.35186000
 Ni      1.34585000      0.98888200      0.64409000
 Ni     -2.73891000      3.02657000      0.78521800
 Ni     -2.14312000      0.87873000      3.61856000
 Ni      0.75375900      3.29283000     -2.29382000
 Ni     -2.31659000     -1.28821000      1.99074000
  C      5.43607000      0.37265300     -1.07621000
  O      6.72242000      0.15974900     -1.35080000
  C     -4.46166000     -3.30748000     -0.26891900
  O     -5.45067000     -4.22050000     -0.17586900
  C      1.99739000      2.90203000      4.18781000
  O      2.47334000      3.76897000      5.05854000
  C      3.03289000      0.13743200      4.55447000
  O      3.90083000      0.18364800      5.58880000
  C      0.38121300     -0.29517900      5.19065000
  O      0.53349600     -0.27293800      6.55938000
  C     -5.01717000     -0.44271100     -1.91995000
  O     -6.28448000     -0.77323100     -2.23149000
  C     -2.52667000      4.96878000      0.01597390
  O     -3.42915000      5.90606000      0.13650500
  C      0.24930900      4.95214000     -0.92425400
  O      0.18355700      6.28283000     -0.97138700
  C     -3.02421000     -0.51989700      4.72504000
  O     -3.79657000     -0.51197500      5.77682000
  C      3.71970000     -2.39665000     -2.94479000
  O      4.61253000     -2.87732000     -3.83369000
  C      1.44418000     -5.13003000      1.18601000
  O      1.84618000     -6.29869000      1.63378000
  C      1.21745000     -0.65671200     -5.18701000
  O      1.69127000     -0.86961900     -6.40839000
  C     -1.95397000      4.35204000     -3.54941000
  O     -2.60055000      5.33371000     -4.03005000
  C     -5.26314000     -0.78959500      1.64321000
  O     -6.54698000     -0.62000300      1.99865000
  C      2.27364000      3.99620000     -3.56670000
  O      2.48170000      5.07404000     -4.21094000
  C     -1.56665000     -5.07115000      0.85217300
  O     -1.87066000     -6.02439000      1.65554000
  C     -1.04436000      2.20291000      4.42285000
  O     -1.16103000      2.80614000      5.55292000
  C     -3.51114000      2.43545000      2.63207000
  O     -4.45282000      3.08334000      3.25156000
  C     -0.35099200     -3.27998000      4.24791000
  O     -0.49395300     -4.09331000      5.31974000
  C      4.68910000     -2.95698000      0.07742080
  O      5.51488000     -3.97597000      0.05035950
  C     -1.74722000     -0.69332800     -4.74341000
  O     -2.04411000     -1.01604000     -5.99945000
  C     -3.28276000     -3.17394000     -3.21876000
  O     -3.99602000     -3.84432000     -4.12149000
  C     -4.48308000      2.20053000     -0.49432700
  O     -5.70809000      2.64318000     -0.82933300
  C     -0.07824820     -3.25437000     -4.17817000
  O     -0.01634410     -4.06910000     -5.22300000
  C      4.66430000     -0.86610200      1.81459000
  O      5.80969000     -1.33168000      2.27880000
  C      1.86113000     -4.83442000     -1.42806000
  O      2.31647000     -5.95515000     -2.01969000
  C      4.14506000      2.97193000     -1.28968000
  O      5.17481000      3.75813000     -1.62034000
  C      4.49303000      2.32971000      1.92334000
  O      5.71509000      2.72158000      2.33990000
  C     -3.24684000     -2.76897000      2.87643000
  O     -4.22518000     -3.26904000      3.61635000
  C     -3.94306000      1.38762000     -3.50925000
  O     -4.75907000      1.71340000     -4.47697000
  C      3.27306000      1.09516000     -3.62121000
  O      4.21529000      1.53483000     -4.43627000
  C      2.36422000      4.70270000      1.27617000
  O      3.08151000      5.81909000      1.47142000
  C     -0.46010300      4.85027000      2.21455000
  O     -0.68510600      5.98969000      2.84196000
  C     -1.35612000     -5.04230000     -0.82016800
  O     -1.43487000     -6.06487000     -1.58269000
  C     -0.53721400      2.40862000     -5.01180000
  O     -0.53621600      2.82196000     -6.23841000
  C      2.83330000     -2.98754000      3.59834000
  O      3.46581000     -3.70977000      4.56893000
