110
Energy = -12300.22008367 au
 Ni      3.47238000     -1.11620000     -1.56575000
 Ni      1.21756000     -0.20383100      1.32052000
 Ni      2.99730000      1.37327000     -2.65843000
 Ni     -3.05610000     -0.28495600      2.95809000
 Ni     -0.67740600     -1.47710000      2.63274000
 Ni      0.94512400      1.91330000      3.04485000
 Ni      0.76983100      2.12349000      0.32587000
 Ni     -3.45701000      1.99968000      1.98060000
 Ni      1.56091000     -2.26938000     -0.25616100
 Ni     -0.95321900     -0.83950500     -2.52873000
 Ni      1.09090000      0.09406010     -1.24575000
 Ni      1.44795000     -2.07625000     -2.86637000
 Ni     -2.89214000     -2.18461000     -1.24674000
 Ni     -1.67467000      3.60370000     -2.05379000
 Ni     -1.23403000      1.18194000     -0.95124100
 Ni     -0.52031600     -3.34708000     -1.56767000
 Ni     -2.71511000     -2.45814000      1.38170000
 Ni      3.65225000     -1.40378000      1.05535000
 Ni     -1.38780000      1.56075000     -3.58049000
 Ni      3.09717000      1.00453000      0.04021700
 Ni     -3.31538000      0.21132100     -2.23525000
 Ni     -0.79561500     -1.15463000      0.03850370
 Ni      1.74863000     -2.60570000      2.39571000
 Ni      3.27130000      0.75517600      2.59705000
 Ni     -3.61088000      2.34720000     -0.62896000
 Ni     -1.64002000      3.42212000      0.66817900
 Ni      1.02437000      0.40135600     -3.85408000
 Ni      2.61205000      3.43464000     -1.02006000
 Ni     -1.01656000      0.67623800      4.17916000
 Ni     -3.09830000     -0.08892650      0.31437500
 Ni     -1.44315000      2.94717000      3.23988000
 Ni      0.46272100      4.17712000      1.98191000
 Ni     -0.37227400     -3.61143000      1.04835000
 Ni     -1.11506000      0.88768700      1.61292000
 Ni      2.74447000      3.11643000      1.64762000
 Ni      0.32000100      4.49827000     -0.73679200
 Ni      1.35284000     -0.52856700      3.94661000
 Ni      0.65273200      2.51813000     -2.41476000
  C     -4.44794000     -2.87391000      0.45088400
  O     -5.60595000     -3.44742000      0.65511400
  C      2.07904000      1.92638000     -4.17291000
  O      2.51401000      2.47461000     -5.25731000
  C     -3.77634000      3.47393000      0.85647000
  O     -4.66938000      4.37988000      1.09422000
  C     -2.48161000     -0.73779200      4.86743000
  O     -3.15110000     -0.89442900      6.03019000
  C     -1.53900000     -5.10497000      0.44986400
  O     -1.76292000     -6.29944000      0.78576500
  C      4.52313000     -3.00439000      0.37848500
  O      5.63602000     -3.61658000      0.61676200
  C     -1.50700000      5.00288000     -0.76068300
  O     -1.89249000      6.23453000     -0.84632700
  C     -3.18017000      0.65848200     -4.19912000
  O     -4.00923000      0.82105300     -5.25259000
  C     -3.65155000      3.25654000     -2.45235000
  O     -4.64316000      4.06043000     -2.95493000
  C      5.13813000     -0.07673030     -1.01225000
  O      6.42648000     -0.04244720     -1.24808000
  C      0.51824700     -4.74153000     -2.42270000
  O      0.51963000     -5.91632000     -2.93395000
  C     -3.10630000      2.07636000      3.79250000
  O     -3.87488000      2.68998000      4.63110000
  C      1.39511000      4.44439000     -2.25929000
  O      1.65355000      5.46313000     -3.01212000
  C     -4.53004000     -1.62351000     -2.37314000
  O     -5.62265000     -2.01186000     -2.98561000
  C      1.80249000     -4.87930000      0.47221100
  O      2.37043000     -6.02131000      0.64920300
  C      0.14577600     -1.52265000      5.19266000
  O      0.23039900     -2.00684000      6.44372000
  C     -2.70469000     -3.21045000      3.21457000
  O     -3.40390000     -4.03732000      3.93449000
  C     -2.71729000     -4.14903000     -1.71611000
  O     -3.41679000     -5.15443000     -2.18596000
  C      4.93210000     -0.09409310      2.03267000
  O      6.09631000     -0.10448400      2.63031000
  C      1.41770000     -2.26898000     -4.77413000
  O      1.76805000     -2.98328000     -5.76666000
  C     -4.93718000     -0.09075420      2.14059000
  O     -6.08458000     -0.09472820      2.81387000
  C     -1.24608000      4.74613000      2.64833000
  O     -1.44205000      5.90312000      3.18044000
  C      3.36429000     -2.76419000      3.57470000
  O      4.01912000     -3.44661000      4.36987000
  C      1.88905000      4.90246000      0.59148500
  O      2.33056000      6.11477000      0.71554700
  C     -0.00731756      2.03298000      4.89434000
  O      0.12024600      2.47052000      6.08730000
  C      3.56895000     -0.40793500     -3.73073000
  O      4.56223000     -0.54064900     -4.65277000
  C      4.75742000      2.57629000      0.77406400
  O      5.62334000      3.40650000      1.32427000
  C      2.77797000      0.67591400      4.62544000
  O      3.52152000      0.81761200      5.77243000
  C     -0.42322200      0.26120200     -5.19101000
  O     -0.42505000      0.21401700     -6.54976000
  C     -5.11543000      0.90024100     -0.63457500
  O     -6.45235000      1.01435000     -0.67687800
  C      4.32636000      2.80825000     -2.04067000
  O      5.33038000      3.56822000     -2.55015000
  C      1.99578000      3.62327000      3.32799000
  O      2.50117000      4.32041000      4.28854000
  C      0.33214500     -3.99658000      3.12454000
  O      0.36389900     -5.05940000      4.00103000
  C     -1.63595000     -2.38522000     -4.23120000
  O     -2.18081000     -2.95515000     -5.24754000
  C     -1.19109000      3.35790000     -3.89000000
  O     -1.34878000      4.08553000     -4.93975000
  C      3.50306000     -3.18585000     -2.20325000
  O      4.29031000     -4.07065000     -2.74076000
