#B3LYP/6-31+G(d) OPT FREQ

110, Energy = -12932.57526634 au

0 1
 Ni      0.24974600     -3.21471000     -2.40933000
 Ni     -1.35364000      0.13302600     -1.42541000
 Ni      0.40350100     -3.93398000      0.13580300
 Ni     -0.45900700      4.44248000     -0.47384300
 Ni     -1.19185000      2.78104000     -2.53329000
 Ni     -3.42571000      0.95527300      0.35371700
 Ni     -1.08146000     -0.49704300      1.11097000
 Ni     -0.15048700      3.80818000      2.08778000
 Ni      0.32643100     -0.69829300     -3.56205000
 Ni      3.39378000     -0.23451700     -0.76987400
 Ni      0.72355000     -1.28922000     -0.68044800
 Ni      2.59430000     -2.02550000     -2.60245000
 Ni      3.43084000      2.25874000     -1.48774000
 Ni      1.54182000     -0.09975110      3.80320000
 Ni      1.30396000      0.55766900      1.08831000
 Ni      2.82668000      0.43325200     -3.22395000
 Ni      1.41214000      3.65744000     -2.19315000
 Ni     -1.89102000     -1.80063000     -3.29968000
 Ni      3.34041000     -0.87430600      1.86656000
 Ni     -1.65203000     -2.39442000     -0.65802300
 Ni      3.74050000      1.61073000      1.11921000
 Ni      1.00340000      1.18577000     -1.43014000
 Ni     -1.72874000      0.75658300     -4.01348000
 Ni     -3.71697000     -0.93642700     -1.41809000
 Ni      1.96230000      2.45969000      2.90320000
 Ni     -0.45727700      1.28592000      3.14414000
 Ni      2.74796000     -2.72408000      0.09042500
 Ni     -1.31686000     -3.06832000      1.94572000
 Ni     -2.73673000      3.37782000     -0.34168300
 Ni      1.68890000      3.19725000      0.34956300
 Ni     -2.45155000      2.70938000      2.20285000
 Ni     -2.98310000      0.18349800      2.86352000
 Ni      0.81662900      1.84310000     -3.95511000
 Ni     -0.74361200      1.95231000      0.32362700
 Ni     -3.48162000     -1.67318000      1.14379000
 Ni     -0.86687100     -1.19339000      3.70105000
 Ni     -3.62762000      1.48146000     -2.15538000
 Ni      0.95655600     -1.95954000      1.90167000
  C      0.13088700     -4.50902000      2.04662000
  O      0.26004400     -5.69365000      2.70665000
  C     -0.32519300     -2.51053000     -4.11319000
  O     -0.19980200     -3.17059000     -5.22103000
  C      4.06577000     -0.79848300     -2.55250000
  O      5.26060000     -0.92669400     -3.04517000
  C      4.72080000      0.24638400      2.64737000
  O      5.88846000      0.05660330      3.26795000
  C     -4.33676000      2.37318000     -0.62926800
  O     -5.50797000      2.92087000     -0.51191900
  C     -0.08029680     -5.02402000     -1.77682000
  O     -0.00077910     -6.25482000     -2.29890000
  C     -0.38542800     -2.93543000      4.32720000
  O     -0.44364900     -3.56792000      5.48038000
  C      2.73594000     -3.87842000     -2.94878000
  O      3.49438000     -4.62202000     -3.70471000
  C     -4.22051000      2.18351000      2.82797000
  O     -5.11591000      2.84191000      3.57788000
  C      1.47766000      5.20683000     -0.90915500
  O      1.29054000      6.47268000     -0.91105200
  C     -4.57450000     -0.13931600      1.35156000
  O     -5.85255000     -0.07082730      1.53164000
  C     -1.94181000      4.51352000      1.20293000
  O     -2.46166000      5.65354000      1.55311000
  C     -1.02986000      3.05076000      3.57700000
  O     -1.16758000      3.61072000      4.74115000
  C      3.46258000      3.46664000      2.02109000
  O      4.63717000      3.91979000      2.34212000
  C     -2.69403000     -0.72207200     -4.58337000
  O     -3.39859000     -0.93290600     -5.62787000
  C     -1.90094000      4.38150000     -1.76568000
  O     -2.50531000      5.35085000     -2.38254000
  C      2.91834000      2.28427000     -3.51232000
  O      3.68941000      2.79291000     -4.42799000
  C     -0.41015500      0.27900500      4.75837000
  O     -0.66295900      0.49475100      5.99217000
  C     -3.29798000     -0.67446800      4.51822000
  O     -4.20270000     -0.71872500      5.44862000
  C     -4.45097000     -2.69414000     -0.20794900
  O     -5.58820000     -3.42512000     -0.17507800
  C      1.94508000      4.33090000      2.20775000
  O      1.87356000      5.54520000      2.66488000
  C      1.97770000     -0.68663900     -4.44548000
  O      2.25652000     -0.91630900     -5.67861000
  C      2.50811000     -1.38507000      4.77657000
  O      2.93820000     -1.53769000      5.98379000
  C      4.67489000      1.24513000     -0.48314500
  O      5.96992000      1.23887000     -0.58918200
  C      2.98630000      4.30498000     -1.09104000
  O      4.10435000      4.91181000     -1.31872000
  C      2.26839000     -4.62498000     -0.05895470
  O      2.89931000     -5.83346000     -0.03379480
  C      4.59701000     -2.14879000      0.09260070
  O      5.81214000     -2.72106000      0.04146610
  C      2.08383000      1.89007000      4.70267000
  O      2.81011000      2.38898000      5.72847000
  C     -2.82053000      2.24805000     -3.67076000
  O     -3.50893000      2.87107000     -4.57793000
  C      2.99744000     -3.00250000      2.52446000
  O      3.54523000     -3.91115000      3.33244000
  C      0.22698100      3.64636000     -3.65488000
  O      0.19383700      4.62028000     -4.51244000
  C     -1.91992000     -4.56841000      0.29830300
  O     -2.56931000     -5.72809000      0.18739400
  C     -4.92445000      0.17029800     -2.26395000
  O     -6.13170000      0.03365050     -2.75708000
  C     -3.10208000     -2.97592000      2.76488000
  O     -3.85511000     -3.88469000      3.45229000
  C     -0.34595000      1.10682000     -5.22074000
  O     -0.42493400      1.36176000     -6.47317000
  C     -2.93691000     -3.23511000     -2.63461000
  O     -3.65083000     -4.23451000     -3.16634000

