#B3LYP/6-31+G(d) OPT FREQ

110, Energy = -11878.67104426 au

0 1
 Ni     -1.92417000     -2.74726000     -2.35779000
 Ni     -0.95650500      0.66563400     -1.30763000
 Ni     -2.15440000     -3.50591000      0.10339400
 Ni      2.52771000      3.44353000     -0.28822900
 Ni      0.84302900      2.37765000     -2.03465000
 Ni     -1.80916000      2.32659000      0.45098400
 Ni     -1.12856000     -0.04680650      1.14295000
 Ni      2.30866000      2.71169000      2.15524000
 Ni     -0.11151400     -0.99962600     -3.06640000
 Ni      2.19532000     -2.37466000     -0.65335300
 Ni     -0.29386800     -1.72353000     -0.61813700
 Ni      0.58606800     -3.39572000     -2.40765000
 Ni      4.02291000     -0.68259000     -1.39366000
 Ni      1.20274000     -1.44959000      3.60037000
 Ni      1.34034000     -0.72363400      1.10970000
 Ni      2.40307000     -1.67311000     -3.13161000
 Ni      3.33938000      1.72645000     -2.07330000
 Ni     -2.59990000     -0.32840900     -3.07040000
 Ni      2.04983000     -3.11864000      1.83341000
 Ni     -2.74712000     -1.04942000     -0.58497000
 Ni      3.84974000     -1.39370000      1.11604000
 Ni      1.51135000     -0.01074930     -1.34151000
 Ni     -0.79334500      1.40810000     -3.79279000
 Ni     -3.46757000      1.35714000     -1.29550000
 Ni      2.98693000      0.26343600      2.87686000
 Ni      0.49277500      0.93822800      2.89119000
 Ni      0.37408400     -4.12453000      0.07154260
 Ni     -2.95831000     -1.78243000      1.87684000
 Ni      0.01641360      4.06090000     -0.25347600
 Ni      3.14143000      0.98675500      0.39597100
 Ni     -0.19443900      3.34814000      2.21516000
 Ni     -2.00739000      1.61459000      2.95191000
 Ni      1.69598000      0.72881500     -3.81915000
 Ni      0.67745000      1.66636000      0.42018800
 Ni     -3.65165000      0.62055100      1.19526000
 Ni     -1.31685000     -0.76443500      3.62970000
 Ni     -1.66570000      3.07633000     -2.02562000
 Ni     -0.46046800     -2.43232000      1.82164000
  C     -5.33752000      1.01534000     -1.94487000
  O     -6.48550000      1.48375000     -2.42141000
  C      0.59330700      2.93617000     -4.09665000
  O      0.74252500      3.63190000     -5.16705000
  C      3.13462000      3.82553000     -2.31312000
  O      4.10838000      4.45007000     -3.02142000
  C      0.51998500      4.81726000     -2.03285000
  O      0.65611200      6.09873000     -2.36625000
  C      2.03523000      4.73829000      1.23114000
  O      2.64206000      5.89436000      1.22457000
  C      3.25185000      2.66479000      4.01759000
  O      4.03230000      3.45119000      4.67357000
  C     -1.02684000      1.33663000      4.69324000
  O     -1.27492000      1.69411000      5.92755000
  C     -4.16498000     -1.76411000     -2.32551000
  O     -5.28277000     -2.20714000     -2.91547000
  C      2.97646000     -4.62715000      0.60051400
  O      3.52014000     -5.63977000      1.24753000
  C      0.04438640     -0.15645200     -5.31764000
  O      0.19496900      0.00865353     -6.63284000
  C     -1.09641000     -5.71951000      1.28107000
  O     -0.91328300     -6.95415000      0.96129900
  C      3.80696000      0.97655300     -4.18411000
  O      4.31043000      1.01111000     -5.40665000
  C      1.78509000      0.29083800      4.74091000
  O      2.25416000      0.37260200      5.93710000
  C     -1.37828000     -4.84610000     -2.50327000
  O     -1.57460000     -5.80324000     -3.38093000
  C      4.84003000      0.15330700      2.20010000
  O      5.89639000      0.14041700      2.93758000
  C     -3.03371000      3.41827000      2.93718000
  O     -3.73583000      4.07640000      3.80763000
  C     -1.88777000     -2.01491000     -4.40267000
  O     -2.46115000     -2.55240000     -5.51290000
  C     -4.90609000     -1.58066000      0.62288000
  O     -6.08470000     -2.03641000      0.95201800
  C     -2.71067000     -3.51608000      2.86761000
  O     -3.48898000     -4.35067000      3.50898000
  C     -1.29107000      4.98029000      1.19629000
  O     -1.49268000      6.30340000      1.21269000
  C     -3.55429000     -0.43034500      3.68416000
  O     -4.43144000     -0.52923500      4.70838000
  C      5.15662000     -2.32932000     -0.10803100
  O      6.25632000     -2.93585000      0.32077300
  C     -4.16337000     -4.32319000     -0.94821100
  O     -4.69946000     -5.47973000     -0.75919500
  C      0.44544500      3.84241000      4.10369000
  O      0.41021900      4.96546000      4.72726000
  C     -3.62478000      3.63828000     -0.21009900
  O     -4.50670000      4.56251000     -0.23151300
  C      1.01583000     -2.63398000     -4.54052000
  O      1.43297000     -3.35132000     -5.60822000
  C      4.62134000      2.66655000      0.83509100
  O      5.73215000      3.34175000      0.79911500
  C      5.63786000      0.66201400     -0.75983600
  O      6.66332000      0.67349900     -1.56066000
  C     -3.07428000      1.41521000     -4.31430000
  O     -3.66062000      1.59674000     -5.48709000
  C     -5.42014000      1.64038000      1.61062000
  O     -6.59708000      1.81257000      1.94909000
  C     -2.52271000      4.10356000     -3.49593000
  O     -3.08506000      5.10387000     -4.04739000
  C      2.91118000     -2.52098000      3.51659000
  O      3.61896000     -3.01992000      4.47064000
  C      0.20287400     -3.91285000      3.20808000
  O      0.27967800     -4.95671000      4.00594000
  C     -0.51427700     -1.84063000      5.13068000
  O     -0.72820200     -2.29613000      6.34888000
  C      2.08008000     -4.65356000     -1.67620000
  O      2.52561000     -5.80201000     -2.20715000
  C      4.26344000     -2.18516000     -2.76517000
  O      5.19410000     -2.86328000     -3.45040000

