#B3LYP/6-31+G(d) OPT FREQ

110, Energy = -12714.10505369 au

0 1
 Ni     -0.36215900     -3.59008000     -2.46038000
 Ni     -1.39327000     -0.24301600     -1.34773000
 Ni     -0.01205120     -4.36947000      0.21185600
 Ni      0.04049650      4.02206000     -0.39594900
 Ni     -0.90427300      2.31353000     -2.27147000
 Ni     -3.17384000      0.70279300      0.53010100
 Ni     -1.07879000     -0.91646000      1.15042000
 Ni      0.27583000      3.36307000      2.15127000
 Ni      0.39071400     -1.16720000     -3.46030000
 Ni      3.40450000     -1.13040000     -0.74113900
 Ni      0.53987600     -1.83288000     -0.68002000
 Ni      2.36887000     -2.76943000     -2.53023000
 Ni      3.54453000      1.44917000     -1.61414000
 Ni      1.75009000     -0.78916500      3.58567000
 Ni      1.39314000     -0.08466110      1.02624000
 Ni      2.72149000     -0.30436300     -3.44735000
 Ni      1.52751000      3.16252000     -2.38154000
 Ni     -2.30485000     -2.01809000     -3.01952000
 Ni      3.39700000     -1.63440000      1.71003000
 Ni     -2.10678000     -2.88417000     -0.47977200
 Ni      3.95816000      0.79666700      0.89961300
 Ni      1.06570000      0.61007800     -1.45489000
 Ni     -1.76458000      0.38191300     -3.92432000
 Ni     -3.93155000     -0.97449800     -1.15896000
 Ni      2.26122000      1.66861000      2.82498000
 Ni     -0.25242100      0.89200500      2.89698000
 Ni      2.49715000     -3.42959000      0.02795100
 Ni     -1.62443000     -3.37528000      2.03266000
 Ni     -2.60594000      3.15975000     -0.25644300
 Ni      1.94357000      2.41015000      0.25151600
 Ni     -2.17462000      2.48325000      2.20039000
 Ni     -2.63320000     -0.04931290      3.08038000
 Ni      0.74462900      1.31328000     -3.94591000
 Ni     -0.57898200      1.54183000      0.36621100
 Ni     -3.59970000     -1.89620000      1.31651000
 Ni     -0.68935000     -1.60545000      3.70417000
 Ni     -3.37774000      1.28166000     -1.99804000
 Ni      0.90854100     -2.67677000      2.07251000
  C      3.61924000     -0.17496700      3.82893000
  O      4.37541000     -0.20938500      4.95080000
  C      1.36175000     -0.19074400     -4.90171000
  O      1.48550000     -0.26603200     -6.19501000
  C     -0.57718000      4.99095000      1.36646000
  O     -0.59121900      6.29864000      1.74650000
  C     -4.62049000      0.96389800     -0.69902100
  O     -5.85842000      1.34974000     -0.61440400
  C     -1.33366000      3.38711000      3.78506000
  O     -1.77645000      4.28552000      4.68477000
  C     -4.90754000     -2.53108000     -0.24544200
  O     -6.19211000     -2.92328000     -0.44117300
  C     -2.54733000     -4.03682000     -2.19963000
  O     -3.52217000     -4.49116000     -2.94982000
  C      4.68581000      2.57439000     -0.37571600
  O      5.85060000      3.19241000     -0.63331600
  C     -3.24391000     -3.75915000      1.25830000
  O     -4.00995000     -4.76324000      1.53622000
  C      2.94541000      1.83158000     -3.44271000
  O      3.75534000      2.29009000     -4.34780000
  C      0.12147700      3.07898000     -3.83996000
  O     -0.10993400      3.82951000     -4.87528000
  C     -4.04906000      2.00337000      2.29335000
  O     -5.21149000      2.49666000      2.78368000
  C     -4.62816000     -0.74248100      2.50431000
  O     -5.81650000     -1.02260000      3.11661000
  C     -2.26886000      0.50907100      4.85919000
  O     -2.97408000      0.74361600      5.92179000
  C     -3.75392000      4.35061000      0.64986000
  O     -4.52101000      5.40169000      0.46781700
  C      0.01623300     -4.38101000      2.22137000
  O      0.16092900     -5.36327000      3.07513000
  C     -1.68071000     -4.86254000     -1.13692000
  O     -1.80412000     -6.11581000     -0.78484200
  C      4.32452000     -0.20533300     -2.17248000
  O      5.56701000     -0.45050500     -2.47363000
  C      1.42751000      3.26392000      3.82599000
  O      1.82268000      4.12012000      4.80124000
  C      1.42627000     -4.57464000     -2.93080000
  O      1.62091000     -5.58948000     -3.80662000
  C     -3.77078000     -0.55549500     -3.13396000
  O     -4.82097000     -0.66618800     -3.89134000
  C      3.20764000     -3.49172000      2.40542000
  O      3.99244000     -4.27364000      3.18012000
  C      2.24705000      4.83422000     -1.70025000
  O      2.77401000      5.84469000     -2.33505000
  C      4.86932000     -0.82857000      0.97597600
  O      6.13161000     -1.01792000      1.20291000
  C      4.15190000      2.20878000      2.41587000
  O      5.21201000      2.72019000      3.09078000
  C      0.55264800      0.53220500      4.87796000
  O      0.46104200      0.90658800      6.17687000
  C     -1.75688000      0.98995000     -5.69520000
  O     -2.46824000      1.19245000     -6.78807000
  C      1.80575000     -5.25209000      0.16164300
  O      2.33584000     -6.50747000      0.22031500
  C      2.81524000     -2.00568000     -4.12470000
  O      3.50104000     -2.52486000     -5.05996000
  C      3.80979000     -2.94568000     -1.18965000
  O      4.95483000     -3.55903000     -1.29478000
  C     -0.93060900     -2.23784000     -4.28661000
  O     -0.93987700     -2.68448000     -5.50294000
  C      2.25718000      4.29891000      1.06897000
  O      3.10749000      5.31060000      1.19516000
  C     -1.09141000      4.71268000     -1.78091000
  O     -1.32115000      5.90829000     -2.36066000
  C     -3.21578000      2.99463000     -2.91396000
  O     -3.99816000      3.73991000     -3.69836000
  C     -2.41258000     -2.62563000      3.88982000
  O     -2.88094000     -3.24070000      5.03694000
  C      0.93335000     -2.26299000      4.30932000
  O      1.20532000     -2.90315000      5.40276000

