110
Energy = -12752.93584298 au
 Ni      3.38213000     -2.50172000     -0.65192500
 Ni      0.21324700     -0.68535800     -1.66096000
 Ni      2.23668000     -3.38821000      1.55365000
 Ni     -2.18687000      3.23397000     -1.39992000
 Ni     -0.28006900      1.84946000     -2.70104000
 Ni     -2.39643000     -1.43150000     -1.63553000
 Ni     -0.88489700     -1.51338000      0.55024100
 Ni     -3.36804000      2.37707000      0.80620400
 Ni      2.96823000     -0.01693540     -1.94837000
 Ni      2.66193000      1.29073000      1.80355000
 Ni      1.63844000     -0.93094100      0.49384900
 Ni      4.13961000     -0.37308300      0.47035800
 Ni      1.87268000      3.56533000      0.78436500
 Ni     -1.14161000     -0.11186800      3.98214000
 Ni     -0.05107730      0.61821900      1.74906000
 Ni      3.52512000      2.20788000     -0.54908000
 Ni      0.58083900      3.90784000     -1.44507000
 Ni      1.89158000     -2.28381000     -2.92999000
 Ni      1.40359000      0.35265000      4.03349000
 Ni      0.89350600     -3.19787000     -0.76154100
 Ni      0.88742500      2.80703000      2.98558000
 Ni      1.05942000      1.43541000     -0.45830600
 Ni      1.40520000     -0.09350340     -3.97647000
 Ni     -0.53742400     -2.72448000     -3.03457000
 Ni     -1.68923000      2.15657000      3.07677000
 Ni     -2.77558000      0.06472600      1.76754000
 Ni      3.16966000     -1.30350000      2.62268000
 Ni     -0.19364400     -3.98701000      1.45138000
 Ni     -2.87875000      1.13504000     -2.59553000
 Ni     -0.70724900      3.02193000      0.72611400
 Ni     -4.10852000      0.28483700     -0.48350700
 Ni     -3.48727000     -2.13360000      0.53609300
 Ni      2.22195000      2.31115000     -2.75632000
 Ni     -1.49668000      0.83994600     -0.44761800
 Ni     -1.70688000     -3.67664000     -0.68608800
 Ni     -1.97328000     -2.37933000      2.75866000
 Ni     -1.22523000     -0.47305300     -3.85211000
 Ni      0.64803300     -1.82276000      2.99758000
  C     -3.06435000      0.12111300      4.13499000
  O     -4.03257000      0.10701600      5.07302000
  C      2.15057000      3.97174000      2.47232000
  O      2.76218000      4.92376000      3.03314000
  C      4.63920000      2.48028000      0.94334000
  O      5.82276000      3.02366000      1.22872000
  C     -0.71165900     -4.90269000     -1.73643000
  O     -0.78649700     -6.19650000     -2.10349000
  C      3.21787000     -1.12126000     -3.50657000
  O      4.24508000     -1.39812000     -4.23988000
  C     -4.58368000      0.97539700      1.20532000
  O     -5.78922000      1.07194000      1.67432000
  C      3.98160000      1.81867000     -2.33426000
  O      5.03758000      2.17909000     -2.99853000
  C     -3.36143000     -0.26164500     -3.98409000
  O     -4.29295000     -0.33043600     -4.97008000
  C      0.98353000      3.63714000     -3.25887000
  O      1.16690000      4.48200000     -4.22561000
  C      1.36558000     -4.64048000      0.46155100
  O      1.74356000     -5.87476000      0.29573400
  C      0.16728100     -0.23942000      5.34846000
  O      0.20663600     -0.44366400      6.70963000
  C     -2.03944000     -4.65856000      1.51829000
  O     -2.39252000     -5.91301000      1.92161000
  C      2.30505000     -1.32587000      4.24513000
  O      2.81513000     -1.87295000      5.30398000
  C     -4.94432000     -1.26083000     -1.20533000
  O     -6.17308000     -1.58339000     -1.66170000
  C     -0.53309400      5.27739000     -0.78632400
  O     -0.53422000      6.58968000     -0.95564900
  C      2.58271000      4.06424000     -0.91591800
  O      3.25706000      5.15178000     -1.14171000
  C     -2.25831000      3.60565000     -3.27693000
  O     -2.73968000      4.61425000     -3.98634000
  C      3.98144000     -2.69654000      1.52403000
  O      4.95600000     -3.43722000      1.98234000
  C     -1.57186000     -2.70274000      4.59843000
  O     -2.09806000     -3.48575000      5.50862000
  C      1.06916000     -3.90911000     -3.56502000
  O      1.36342000     -4.86950000     -4.48787000
  C      0.98700100     -3.70610000      2.94596000
  O      1.15958000     -4.53022000      3.94359000
  C     -0.55549800      4.50255000      2.15528000
  O     -0.88117300      5.77076000      2.42885000
  C     -4.27771000     -2.12194000      2.33601000
  O     -5.43407000     -2.64822000      2.78790000
  C      3.47338000     -4.00113000     -1.87915000
  O      4.51768000     -4.76831000     -2.13150000
  C      4.52927000     -0.03170720      2.27007000
  O      5.67951000      0.02168710      2.86800000
  C     -3.61343000     -3.57080000     -0.66629900
  O     -4.51279000     -4.47145000     -0.88505800
  C     -3.44764000      3.01502000      2.97539000
  O     -4.23466000      3.73309000      3.78402000
  C      0.18873200     -1.44652000     -4.72963000
  O      0.10848800     -1.74925000     -5.98839000
  C     -1.10077000      1.41522000     -4.67948000
  O     -1.31637000      2.06435000     -5.85280000
  C     -4.24045000      1.89978000     -1.48882000
  O     -5.37523000      2.30722000     -1.97351000
  C      5.15289000     -0.83629300     -1.14464000
  O      6.48754000     -0.81992500     -1.36915000
  C      2.68464000      1.74181000      4.02922000
  O      3.58277000      2.18886000      4.98987000
  C      2.25833000      1.42448000     -4.82297000
  O      2.65610000      1.72785000     -6.06765000
  C     -2.41910000     -2.91684000     -3.51251000
  O     -3.18154000     -3.61059000     -4.37226000
  C     -3.18327000      4.10718000      0.07169510
  O     -4.04628000      5.18598000      0.17192400
  C     -0.30831500      2.31081000      4.35999000
  O     -0.40144200      3.00409000      5.45206000
