110
Energy = -12873.16227615 au
 Ni      0.79351300     -3.52572000     -2.54375000
 Ni     -1.18063000     -0.70710300     -1.29324000
 Ni      1.71899000     -4.03449000     -0.10683000
 Ni     -1.23837000      3.90402000     -0.40975000
 Ni     -1.60056000      1.85226000     -2.25259000
 Ni     -2.77033000     -0.30368600      0.79529100
 Ni     -0.32143700     -1.18256000      1.15100000
 Ni     -0.36299700      3.41780000      2.06306000
 Ni      0.34896000     -1.15875000     -3.50858000
 Ni      3.75164000      0.15419000     -1.54480000
 Ni      1.23783000     -1.54668000     -0.89339400
 Ni      2.86339000     -1.93043000     -2.90643000
 Ni      2.75914000      2.54477000     -2.26000000
 Ni      2.55795000      0.06445090      3.13525000
 Ni      1.70088000      0.45303800      0.71792400
 Ni      2.30226000      0.44758400     -3.82240000
 Ni      0.34785800      3.45960000     -2.57757000
 Ni     -1.74643000     -2.71622000     -2.79897000
 Ni      4.24425000     -0.34487800      1.03564000
 Ni     -0.83137100     -3.49680000     -0.43361700
 Ni      3.83372000      2.10535000      0.21738800
 Ni      0.85605800      0.88984100     -1.67649000
 Ni     -2.11172000     -0.31410900     -3.77555000
 Ni     -3.24467000     -2.31831000     -0.82675300
 Ni      2.29052000      2.58193000      2.33612000
 Ni      0.08657790      0.88996900      2.84042000
 Ni      3.66386000     -2.47471000     -0.40685500
 Ni      0.06390620     -3.76396000      2.03547000
 Ni     -3.24761000      2.13791000     -0.00936807
 Ni      1.40836000      3.40163000     -0.08702670
 Ni     -2.41913000      1.72974000      2.47176000
 Ni     -1.96804000     -0.81864000      3.28470000
 Ni      0.07871590      1.52415000     -4.10222000
 Ni     -0.73545100      1.33170000      0.34195400
 Ni     -2.35017000     -2.85945000      1.54848000
 Ni      0.52459100     -1.68800000      3.65568000
 Ni     -3.66112000      0.11975500     -1.67793000
 Ni      2.14088000     -2.13954000      1.66503000
  C      5.28415000      1.18762000      0.88745200
  O      6.49556000      1.49564000      1.10155000
  C     -3.58217000      2.51360000     -2.28009000
  O     -4.35806000      3.32635000     -3.04882000
  C      4.37734000     -1.70140000      2.54222000
  O      5.49841000     -2.23730000      3.06756000
  C     -2.14901000      3.67263000      3.08893000
  O     -2.68012000      4.55374000      3.95614000
  C     -1.09271000     -1.95475000      4.78311000
  O     -1.38129000     -2.36764000      6.04221000
  C     -1.28841000      4.79958000     -2.11992000
  O     -1.64560000      6.07809000     -2.42464000
  C     -4.50683000     -2.20860000      0.64998700
  O     -5.78814000     -2.55589000      0.88967900
  C      3.48243000      1.64353000      3.39239000
  O      4.36480000      1.99748000      4.26005000
  C     -3.20251000      4.05832000      0.51664400
  O     -4.17740000      4.98869000      0.61621500
  C     -5.17025000      0.84392900     -0.50473700
  O     -6.46134000      1.05546000     -0.72367700
  C     -2.04475000     -4.66984000      2.30981000
  O     -2.70571000     -5.63682000      2.93015000
  C      0.06683060      4.68039000      0.71838200
  O      0.21340100      5.94598000      0.95867700
  C     -3.70908000     -1.62011000      3.16650000
  O     -4.67549000     -1.90678000      4.03691000
  C      4.92922000     -1.10428000     -0.71765600
  O      6.13067000     -1.35172000     -1.14439000
  C      0.77700200      0.87623700      4.71775000
  O      0.66778900      1.35861000      5.94861000
  C     -4.32878000      1.37286000      2.04890000
  O     -5.52886000      1.57119000      2.61174000
  C      0.15974600     -4.90235000      0.49594800
  O      0.01589970     -6.18856000      0.46147600
  C      1.16128000     -3.93254000      3.68019000
  O      1.25072000     -4.95082000      4.54750000
  C      1.03483000      3.86075000      3.49513000
  O      1.26660000      4.86950000      4.35684000
  C      1.93287000      4.24103000     -1.89993000
  O      2.36155000      5.39277000     -2.28206000
  C      2.00852000      2.31410000     -4.17394000
  O      2.44360000      2.92942000     -5.22393000
  C      0.02387450     -0.11775000     -5.03520000
  O      0.06568940     -0.33322900     -6.30697000
  C      3.17574000     -3.67361000      1.02117000
  O      3.87441000     -4.58563000      1.62352000
  C     -2.52635000     -4.03131000     -1.06421000
  O     -3.11869000     -5.17518000     -1.17103000
  C      3.92758000     -0.45227900     -3.43727000
  O      4.95787000     -0.52742300     -4.20489000
  C     -1.72240000     -2.39538000     -4.83019000
  O     -2.25836000     -3.19858000     -5.75559000
  C     -3.85109000     -1.61319000     -2.49400000
  O     -4.97720000     -2.02092000     -2.99275000
  C      3.04337000      3.69919000      0.90941900
  O      3.68067000      4.82551000      1.00454000
  C     -3.43347000      0.81566600     -4.52459000
  O     -4.04010000      0.89987500     -5.65630000
  C      2.92360000     -3.75274000     -1.90760000
  O      3.70082000     -4.70196000     -2.32934000
  C      4.47881000      1.94192000     -1.62675000
  O      5.53821000      2.35544000     -2.18410000
  C     -0.63868900     -4.98371000     -2.53341000
  O     -0.46301500     -6.16984000     -3.12236000
  C      1.51612000     -2.56008000     -4.08505000
  O      1.75484000     -2.99395000     -5.28537000
  C     -0.81785100      3.12878000     -4.00130000
  O     -1.17998000      3.87750000     -4.95386000
  C      2.41614000     -1.54581000      4.44233000
  O      3.01004000     -1.94916000      5.59697000
  C     -2.24063000      0.98658900      4.40677000
  O     -2.82985000      1.30967000      5.58390000
