110
Energy = -12409.35857443 au
 Ni     -4.00248000     -1.05271000     -0.93601000
 Ni     -1.09821000      1.16110000     -0.23538700
 Ni     -3.30500000     -2.67579000      1.02350000
 Ni      3.27402000      2.19431000     -1.32501000
 Ni      0.69784900      2.48232000     -1.86332000
 Ni      0.01770800      2.17710000      1.98853000
 Ni     -0.35179800     -0.44308000      1.65262000
 Ni      3.95885000      0.41192200      0.63677300
 Ni     -2.37233000      0.37717000     -2.62517000
 Ni     -0.18710300     -2.76831000     -2.36932000
 Ni     -1.48041000     -1.39013000     -0.49829900
 Ni     -2.62797000     -2.24690000     -2.68982000
 Ni      1.66005000     -1.58608000     -3.65470000
 Ni      1.79410000     -3.36405000      1.82002000
 Ni      1.03445000     -1.76632000     -0.07002490
 Ni     -0.77786900     -1.17045000     -4.25911000
 Ni      1.98787000      0.99765400     -3.53438000
 Ni     -3.71980000      1.58536000     -0.68417000
 Ni      0.64183400     -4.38515000     -0.36097600
 Ni     -2.88290000     -0.09802350      1.22852000
 Ni      2.40670000     -3.09098000     -1.87504000
 Ni      0.27296200     -0.16054000     -1.95350000
 Ni     -2.03000000      2.84144000     -2.18153000
 Ni     -2.55295000      2.46613000      1.50378000
 Ni      3.63192000     -2.11479000      0.31369900
 Ni      2.20624000     -0.81615400      2.08462000
 Ni     -1.85639000     -3.95489000     -0.64526500
 Ni     -2.19373000     -1.73774000      3.21159000
 Ni      1.80788000      3.52443000      0.42467600
 Ni      2.77488000     -0.48608100     -1.52023000
 Ni      2.51506000      1.78849000      2.37482000
 Ni      0.71326300      0.50041800      3.92510000
 Ni     -0.38344400      1.50122000     -4.01028000
 Ni      1.41926000      0.80719000      0.18396200
 Ni     -1.76741000      0.92158500      3.53046000
 Ni      0.36962000     -2.00923000      3.57690000
 Ni     -0.68324800      3.85359000     -0.00397847
 Ni     -0.80321800     -3.07032000      1.40620000
  C      3.25589000      4.27571000     -1.53512000
  O      4.27077000      5.02591000     -1.84861000
  C      4.62887000     -0.43804400      2.30359000
  O      5.73369000     -0.53139300      3.03299000
  C      1.09832000     -3.37713000     -3.62655000
  O      1.03488000     -4.38075000     -4.42758000
  C     -2.85507000     -1.38884000      5.27305000
  O     -3.62104000     -1.99397000      6.08504000
  C      2.72175000      1.11503000      4.29935000
  O      3.45478000      1.47418000      5.37379000
  C     -4.44063000      3.00476000      0.66505400
  O     -5.49509000      3.78075000      0.91151100
  C      3.95897000     -3.50474000      1.84160000
  O      4.82028000     -4.41518000      2.29819000
  C     -4.93406000     -1.82546000      1.91854000
  O     -5.90772000     -2.58229000      2.33834000
  C      1.17004000      2.30747000     -4.43271000
  O      1.53911000      3.02526000     -5.44977000
  C     -1.75584000     -2.77498000     -4.29236000
  O     -2.21355000     -3.55230000     -5.17596000
  C      2.59709000     -4.95591000     -0.83428600
  O      3.24005000     -6.01848000     -1.34358000
  C      3.80797000     -2.18038000     -3.22841000
  O      4.72941000     -2.52411000     -4.14741000
  C      3.79165000      3.16756000      1.64951000
  O      4.65877000      4.00788000      2.22506000
  C     -1.91804000      2.71421000      4.60128000
  O     -2.45045000      3.04047000      5.71820000
  C     -1.68933000      4.22781000      2.08262000
  O     -2.09366000      5.34722000      2.70797000
  C     -1.68101000      0.38797600     -4.78902000
  O     -2.20079000      0.54348100     -5.93849000
  C     -3.87078000     -0.81198900     -2.85256000
  O     -4.81824000     -0.69683800     -3.70496000
  C     -3.79231000      2.35645000     -2.32278000
  O     -4.85276000      2.88505000     -2.89931000
  C     -4.01951000      0.79668000      2.81608000
  O     -5.22758000      0.84349400      3.39003000
  C     -0.51907700     -3.74629000      3.87838000
  O     -0.55463000     -4.63877000      4.85816000
  C     -2.24632000      4.70228000     -1.11392000
  O     -2.69900000      5.94123000     -1.31414000
  C      0.83566000      5.30469000      0.96367000
  O      1.21807000      6.54423000      1.10113000
  C      0.92067100     -0.47565100     -5.00537000
  O      1.24242000     -0.63205800     -6.23404000
  C     -2.21289000     -4.34435000      1.36409000
  O     -2.55811000     -5.39744000      2.01040000
  C      0.60800500      4.41633000     -2.03417000
  O      0.90546200      5.47995000     -2.76855000
  C     -0.47783500     -5.30279000     -2.01865000
  O     -1.07866000     -6.49909000     -2.13372000
  C     -3.73393000     -3.24089000     -1.11281000
  O     -4.70102000     -4.03214000     -1.45982000
  C     -5.32081000      0.29875900     -0.10014100
  O     -6.67309000      0.20591000     -0.25860200
  C     -1.47518000      3.09854000     -3.97759000
  O     -1.89756000      3.93822000     -4.87385000
  C      5.08772000     -1.70952000     -1.02693000
  O      6.25583000     -2.30267000     -0.98690500
  C      4.14052000      0.99630000     -3.20937000
  O      5.13729000      1.16219000     -4.07390000
  C      0.93989900      3.15755000      3.57635000
  O      0.92862900      4.16750000      4.43777000
  C     -0.23344600     -0.31440700      5.42377000
  O     -0.23272600     -0.28853000      6.74301000
  C      2.36446000     -1.98844000      4.13422000
  O      3.12941000     -2.30012000      5.18231000
  C      0.59285500     -5.19774000      1.88214000
  O      0.84260200     -6.50909000      1.95725000
  C      5.23230000      1.26383000     -0.66024700
  O      6.51840000      1.62374000     -0.60950300
