110
Energy = -12605.47063348 au
 Ni     -2.01583000     -1.76105000     -3.32346000
 Ni      0.27470600      0.72302700     -1.44722000
 Ni     -3.64131000     -1.96934000     -1.08438000
 Ni      4.21184000      1.06466000      1.40406000
 Ni      3.09535000      1.09766000     -1.29043000
 Ni     -0.12966900      2.95342000      0.05723300
 Ni     -1.28370000      0.57325600      0.64463900
 Ni      2.30815000      0.98335600      3.34361000
 Ni      0.63972900     -1.43886000     -3.26299000
 Ni      0.56193000     -3.63784000      0.01936190
 Ni     -0.92241200     -1.53167000     -0.84683700
 Ni     -0.45310400     -3.73921000     -2.32091000
 Ni      3.20133000     -3.19789000      0.43010100
 Ni     -1.37552000     -1.57286000      3.70667000
 Ni      0.14626400     -1.41079000      1.55767000
 Ni      2.12147000     -3.36764000     -2.10045000
 Ni      4.25697000     -1.00625000     -0.36827000
 Ni     -0.82155600      0.58226800     -3.92622000
 Ni     -0.98403200     -3.63506000      2.22464000
 Ni     -2.38675000      0.44803300     -1.79794000
 Ni      1.70222000     -3.39765000      2.43065000
 Ni      1.66169000     -1.26773000     -0.55564300
 Ni      1.87935000      0.84309500     -3.64166000
 Ni     -1.11423000      2.78557000     -2.34919000
 Ni      1.19497000     -1.30689000      4.06904000
 Ni     -0.28729200      0.69073500      3.08119000
 Ni     -2.07567000     -3.84501000     -0.22307800
 Ni     -3.92886000      0.29340500      0.34535600
 Ni      2.60370000      3.17268000      0.32001400
 Ni      3.06512000     -1.14773000      2.05377000
 Ni      0.91265000      3.04874000      2.45615000
 Ni     -1.73511000      2.76550000      2.19415000
 Ni      3.24957000     -1.26154000     -2.67839000
 Ni      1.33651000      0.84110900      0.93216300
 Ni     -2.81120000      2.62425000     -0.30845800
 Ni     -2.82755000      0.48210200      2.83117000
 Ni      1.48187000      3.13351000     -2.14952000
 Ni     -2.69362000     -1.87317000      1.38852000
  C      4.95941000     -0.83010000      1.38169000
  O      6.18488000     -1.24791000      1.59024000
  C      0.76470500      4.81010000     -3.36964000
  O      1.22210000      5.66202000     -4.17364000
  C     -3.01850000      2.23729000      3.43681000
  O     -3.77773000      2.84145000      4.29342000
  C      4.07397000     -2.97157000     -1.42295000
  O      5.12618000     -3.68051000     -1.70164000
  C     -3.97073000      1.38189000     -2.36230000
  O     -4.97648000      1.55387000     -3.20620000
  C      3.30920000      2.99127000     -1.53566000
  O      4.31082000      3.60899000     -2.07146000
  C     -4.54443000     -0.59080300      2.46120000
  O     -5.70299000     -0.78245200      3.13931000
  C     -2.69562000      3.99348000     -1.97231000
  O     -3.40037000      4.94222000     -2.57570000
  C     -2.51788000     -2.95268000      3.11447000
  O     -3.33895000     -3.62482000      3.87701000
  C      0.37640500     -3.24595000      3.89273000
  O      0.43643800     -4.08338000      4.88439000
  C      3.40389000      2.03108000     -4.17025000
  O      3.78615000      2.24624000     -5.39026000
  C     -0.59763500     -2.85131000     -3.98519000
  O     -0.56394600     -3.48508000     -5.11697000
  C      2.41864000      4.88018000      1.16046000
  O      3.09794000      5.99404000      1.16422000
  C     -0.18541400      4.73203000     -0.68036000
  O     -0.27899700      6.03630000     -0.54888600
  C      0.59346800     -0.24960100     -4.82639000
  O      0.60272100     -0.50260900     -6.10722000
  C      3.97416000      0.10065000      3.26648000
  O      4.79378000     -0.01355200      4.25369000
  C      3.52063000     -2.88563000      2.53253000
  O      4.40030000     -3.29082000      3.41038000
  C     -2.76857000      4.21602000      0.89460200
  O     -3.55271000      5.28717000      1.10886000
  C      2.63588000      3.23209000      3.41431000
  O      3.14899000      4.03648000      4.35894000
  C     -1.74949000     -5.19229000     -1.60713000
  O     -2.09296000     -6.45507000     -1.96066000
  C      1.10609000     -0.48433600      5.83374000
  O      1.66013000     -0.80728600      6.96033000
  C     -3.73550000     -3.24583000      0.43157100
  O     -4.68561000     -4.02415000      0.79633100
  C     -0.02496930      2.08320000      4.45617000
  O     -0.18789600      2.40496000      5.75813000
  C      0.75371800     -5.38528000     -2.11705000
  O      1.40115000     -6.22954000     -2.92753000
  C      5.38481000      2.75294000      0.92877900
  O      6.55839000      3.09155000      1.30018000
  C     -4.73748000      2.09996000      0.55180100
  O     -5.97777000      2.61813000      0.59931200
  C     -2.08767000     -0.20447200      4.93751000
  O     -2.56356000     -0.21094600      6.21773000
  C      1.98353000     -4.58372000      0.92115400
  O      2.29794000     -5.84438000      0.97282300
  C     -2.76067000     -0.38043000     -4.50517000
  O     -3.44567000     -0.45865300     -5.69972000
  C     -0.99640500      2.40086000     -4.55897000
  O     -1.32784000      3.00308000     -5.70951000
  C     -3.70799000     -2.93271000     -2.91453000
  O     -4.65941000     -3.57403000     -3.62240000
  C     -0.91178000     -5.41087000      0.98688000
  O     -1.09609000     -6.61175000      1.58803000
  C     -5.30801000     -0.96360600     -0.79028900
  O     -6.62820000     -1.19156000     -0.89585300
  C      2.50435000     -2.67131000     -4.34614000
  O      3.37473000     -2.93124000     -5.31953000
  C      4.48278000      0.04221280     -2.10897000
  O      5.63958000      0.30270800     -2.64105000
  C     -0.50815600      4.49288000      2.77541000
  O     -0.60172000      5.62765000      3.47563000
