110
Energy = -12678.16840217 au
 Ni      0.41982200     -3.32793000     -2.19100000
 Ni     -1.03818000      0.08402160     -1.41827000
 Ni      0.35381800     -4.00343000      0.19952100
 Ni     -0.00954378      4.46471000     -0.32497800
 Ni     -0.51277500      2.71515000     -2.28515000
 Ni     -3.05156000      1.01348000      0.10532700
 Ni     -1.08193000     -0.55457600      1.06653000
 Ni     -0.11963200      3.73802000      2.16762000
 Ni      0.85821700     -0.78659200     -3.11968000
 Ni      3.32357000     -0.53728200     -0.20901800
 Ni      0.81706700     -1.44173000     -0.45664900
 Ni      2.74052000     -2.37102000     -1.95139000
 Ni      3.80177000      1.98390000     -0.97872900
 Ni      1.36935000     -0.24865300      3.85150000
 Ni      1.31348000      0.37544300      1.33831000
 Ni      3.26358000      0.23950000     -2.76769000
 Ni      1.93222000      3.53702000     -1.92121000
 Ni     -1.52239000     -1.72624000     -3.35209000
 Ni      3.28518000     -1.08539000      2.35801000
 Ni     -1.65637000     -2.38461000     -0.72765400
 Ni      3.74565000      1.31964000      1.69219000
 Ni      1.34843000      1.01962000     -1.15588000
 Ni     -0.98473600      0.72501000     -4.03258000
 Ni     -3.49586000     -0.97010500     -1.71190000
 Ni      1.90733000      2.13995000      3.16471000
 Ni     -0.64730600      1.26125000      2.93499000
 Ni      2.73219000     -3.05777000      0.42404300
 Ni     -1.64668000     -3.09693000      1.80424000
 Ni     -2.46213000      3.42112000     -0.63831500
 Ni      1.98532000      3.02771000      0.71879100
 Ni     -2.49400000      2.76000000      1.94174000
 Ni     -3.01037000      0.33234100      2.69982000
 Ni      1.46749000      1.68650000     -3.74411000
 Ni     -0.54072600      1.89438000      0.36409700
 Ni     -3.52607000     -1.60182000      0.78611800
 Ni     -1.17160000     -1.18886000      3.62416000
 Ni     -2.99529000      1.67494000     -2.38259000
 Ni      0.75781300     -2.10810000      2.03245000
  C     -3.46635000     -2.49105000     -3.54070000
  O     -4.10435000     -3.01636000     -4.56485000
  C     -4.12524000      2.56519000     -0.73196800
  O     -5.30740000      3.07870000     -0.78706200
  C      2.33991000      0.17472800     -4.44244000
  O      2.82828000      0.06599500     -5.63538000
  C     -1.00859000     -3.36414000      3.95855000
  O     -1.25955000     -4.04899000      5.06190000
  C     -3.00371000      0.90872200     -4.23940000
  O     -3.76635000      1.15341000     -5.35550000
  C     -0.04493170     -0.29237800      5.39011000
  O      0.12700700     -0.59362100      6.68218000
  C      1.63508000     -4.50168000     -1.24804000
  O      1.99776000     -5.67710000     -1.61606000
  C     -4.37554000      1.97927000      2.29499000
  O     -5.27310000      2.58700000      2.84987000
  C      2.05416000     -2.66634000      3.70254000
  O      2.45838000     -3.53784000      4.63963000
  C      0.54377200      2.89765000      4.51011000
  O      0.80115800      3.57097000      5.63491000
  C      5.29049000      0.99096600     -0.09176690
  O      6.39608000      1.24950000      0.52451500
  C     -1.48452000     -4.61027000     -1.07862000
  O     -2.05794000     -5.77115000     -1.38956000
  C      3.36253000      3.01916000      2.37805000
  O      4.20378000      3.80437000      2.97192000
  C      2.76573000     -2.40962000     -4.03979000
  O      3.53968000     -3.18756000     -4.73908000
  C     -2.04712000      1.18187000      4.28875000
  O     -2.40209000      1.57048000      5.43435000
  C      4.39880000     -2.24164000     -0.84899000
  O      5.57772000     -2.67208000     -1.10030000
  C      3.14971000     -4.68760000      1.84362000
  O      4.03182000     -5.61423000      1.77402000
  C      3.27596000      0.43951600      3.79274000
  O      4.00667000      0.47949500      4.86257000
  C      2.89289000      2.83346000     -3.36898000
  O      3.54484000      3.59353000     -4.18788000
  C     -0.17594900     -3.41270000     -4.17318000
  O     -0.22121700     -4.48774000     -4.96618000
  C      5.30604000     -1.62001000      1.57361000
  O      6.21026000     -1.94000000      2.43224000
  C     -3.51132000     -1.55337000      3.71198000
  O     -4.42374000     -1.74976000      4.67319000
  C      5.26651000      0.87214900     -1.70741000
  O      6.05043000      0.88175200     -2.71009000
  C     -5.00586000     -0.33104000      1.07182000
  O     -6.29588000     -0.51207300      1.32564000
  C     -2.31573000      3.44286000     -2.56924000
  O     -2.78036000      4.36957000     -3.35001000
  C     -0.49947000     -0.87773000     -4.88361000
  O     -0.44162600     -1.12332000     -6.14663000
  C     -4.95981000      0.34971300     -2.07751000
  O     -6.15919000      0.17092700     -2.63154000
  C      3.27923000      3.76694000     -0.54669400
  O      4.18334000      4.69817000     -0.51851100
  C     -1.75606000      4.09848000      3.11715000
  O     -2.12490000      5.13359000      3.90057000
  C      1.10131000      4.80103000      1.19137000
  O      1.48623000      5.97391000      1.58891000
  C      0.54367800      4.80014000     -2.07637000
  O      0.58725300      6.00313000     -2.54665000
  C     -0.02824990     -4.92721000      2.09181000
  O     -0.03582270     -6.21921000      2.32518000
  C     -4.03307000     -2.70052000     -0.75732200
  O     -4.99768000     -3.50975000     -0.97741400
  C     -1.81100000      5.00206000      0.39141300
  O     -2.52599000      6.19892000      0.33895200
  C     -0.15025700      2.37831000     -4.40817000
  O     -0.23931400      3.07960000     -5.49338000
  C     -3.53772000     -3.80407000      1.63085000
  O     -4.19659000     -4.78406000      2.21007000
