110
Energy = -12735.80710272 au
 Ni      0.24317800     -3.71782000     -2.53022000
 Ni     -1.77568000     -0.85304300     -1.01818000
 Ni      1.34304000     -4.13210000     -0.19417600
 Ni     -1.87438000      3.62107000     -0.19331300
 Ni     -2.42103000      1.60235000     -1.77408000
 Ni     -3.53671000     -0.52660800      1.44042000
 Ni     -0.76704100     -1.28070000      1.28707000
 Ni     -0.94193100      3.26368000      2.21320000
 Ni     -0.31543500     -1.23911000     -3.66788000
 Ni      2.61858000      0.05458900     -1.45000000
 Ni      0.66769200     -1.63690000     -0.87601000
 Ni      2.18967000     -1.93267000     -3.07953000
 Ni      2.04525000      2.51397000     -2.19572000
 Ni      2.31731000      0.07504680      3.10132000
 Ni      1.18032000      0.42706800      0.72340000
 Ni      1.54980000      0.56823300     -3.89290000
 Ni     -0.35817900      3.46581000     -2.37446000
 Ni     -2.25295000     -2.81624000     -2.73717000
 Ni      3.75253000     -0.23044500      0.93591000
 Ni     -1.37344000     -3.75921000     -0.36367000
 Ni      3.14750000      2.15377000      0.15144100
 Ni      0.10672200      0.80683500     -1.62874000
 Ni     -2.90425000     -0.42862900     -3.32061000
 Ni     -3.67997000     -2.51256000     -0.49855100
 Ni      1.76282000      2.58119000      2.40645000
 Ni     -0.23967300      0.78548400      2.91956000
 Ni      3.23548000     -2.37199000     -0.67766800
 Ni     -0.11252300     -3.74183000      2.04431000
 Ni     -3.89460000      1.99524000      0.41856000
 Ni      0.61994100      2.85794000     -0.03358850
 Ni     -2.78090000      1.60604000      2.66275000
 Ni     -2.14651000     -1.04573000      3.51446000
 Ni     -1.00009000      1.22031000     -3.93583000
 Ni     -1.33054000      1.16720000      0.55127600
 Ni     -2.67990000     -3.03607000      1.96146000
 Ni      0.22973800     -1.85163000      3.61108000
 Ni     -4.31790000     -0.12608200     -1.13826000
 Ni      1.82517000     -1.96414000      1.49015000
  C      2.16959000     -1.53366000      4.40806000
  O      2.74842000     -1.86461000      5.57756000
  C     -3.74277000     -1.86102000      3.03652000
  O     -4.66973000     -2.24912000      3.85866000
  C     -1.02317000     -1.36235000      5.06215000
  O     -1.23082000     -1.73766000      6.36184000
  C     -2.00702000     -1.79091000     -4.33312000
  O     -2.27292000     -2.18914000     -5.54170000
  C      2.77500000      4.10948000     -0.52438000
  O      3.38144000      5.28876000     -0.62466600
  C     -1.49662000     -4.40217000     -2.21358000
  O     -1.96336000     -5.54162000     -2.63666000
  C     -5.14762000      1.62041000     -0.99594000
  O     -6.38858000      2.05293000     -1.30033000
  C      3.25107000     -0.34437200     -4.26694000
  O      4.06230000     -0.33531700     -5.34301000
  C      2.44653000      4.38185000      2.33054000
  O      2.93598000      5.19178000      3.20802000
  C     -3.16556000     -4.05765000      0.41378300
  O     -3.85086000     -5.15768000      0.47681800
  C      4.83590000      1.89918000      1.01695000
  O      5.96500000      2.51330000      1.24942000
  C     -3.05774000      3.58958000      1.36965000
  O     -3.80214000      4.59703000      1.72392000
  C      0.91157500      1.45947000      4.57029000
  O      0.82188700      1.79518000      5.85192000
  C     -4.17716000     -2.00054000     -2.45173000
  O     -5.24467000     -2.49167000     -3.00924000
  C     -1.71554000      3.18249000     -4.10428000
  O     -1.97821000      3.84472000     -5.23732000
  C     -1.50971000     -3.67396000      3.28125000
  O     -1.84034000     -4.66221000      4.05166000
  C      3.55434000     -3.94879000      0.46141800
  O      4.50383000     -4.88822000      0.52332900
  C     -0.81958700      3.62288000      4.04895000
  O     -1.05754000      4.67909000      4.75570000
  C      3.68015000      1.39953000      3.46580000
  O      4.52855000      1.65033000      4.44899000
  C     -4.85953000     -1.28066000      0.28913200
  O     -6.06495000     -1.56089000      0.70368200
  C      0.79106000     -2.73297000     -4.06602000
  O      0.93567400     -3.19520000     -5.27327000
  C     -0.22293500     -4.95804000      0.56619900
  O     -0.39785800     -6.24513000      0.63789800
  C     -2.98099000      3.88113000     -1.78581000
  O     -3.87708000      4.74849000     -2.29253000
  C     -0.34934100      4.95003000      0.89226500
  O     -0.21443000      6.28604000      0.97725700
  C     -4.45335000      1.16794000      1.97066000
  O     -5.59510000      1.38434000      2.55250000
  C      1.69779000      2.90432000     -4.10846000
  O      2.31079000      3.71024000     -5.00563000
  C      4.30828000     -1.50348000      2.26565000
  O      5.42059000     -1.96540000      2.81094000
  C      1.54888000     -4.89342000     -1.88465000
  O      1.99116000     -5.99595000     -2.36673000
  C      4.97161000     -0.74456400     -0.57639000
  O      6.29708000     -0.81398700     -0.78999700
  C      4.12363000      1.89745000     -2.08766000
  O      5.30025000      2.19032000     -2.64781000
  C      0.12274800      0.21063000     -5.02871000
  O      0.15798800      0.22078200     -6.32854000
  C      0.27079400      5.26866000     -1.89291000
  O      0.26178400      6.34843000     -2.58848000
  C     -2.40156000      1.07475000      4.51523000
  O     -2.94396000      1.48910000      5.67819000
  C     -4.01699000      1.10658000     -3.62382000
  O     -4.77058000      1.55705000     -4.61749000
  C      3.90868000     -2.73677000     -2.57916000
  O      4.93399000     -3.36213000     -3.21043000
  C      1.62282000     -3.95037000      2.84601000
  O      2.34845000     -4.87430000      3.51047000
