#B3LYP/6-31+G(d) OPT FREQ

110, Energy = -12633.24544168 au

0 1
 Ni      0.21237500     -3.73353000     -2.20398000
 Ni     -1.45945000     -0.35543100     -1.38550000
 Ni      0.32182800     -4.33650000      0.28937300
 Ni     -0.72206300      4.10663000     -0.12009200
 Ni     -1.08102000      2.41859000     -2.20565000
 Ni     -3.65105000      0.44203800      0.02419340
 Ni     -1.49147000     -1.03356000      1.12170000
 Ni     -0.73814200      3.44809000      2.21494000
 Ni      0.59291600     -1.06987000     -2.92259000
 Ni      2.87978000     -0.59609300     -0.07987220
 Ni      0.49328900     -1.77534000     -0.39766800
 Ni      2.49305000     -2.52773000     -1.97104000
 Ni      3.25970000      1.90143000     -0.76306600
 Ni      0.92876300     -0.71396700      3.90447000
 Ni      0.83493400      0.08241710      1.44506000
 Ni      2.98127000      0.03202090     -2.62785000
 Ni      1.31322000      3.37730000     -1.76015000
 Ni     -1.69015000     -2.22809000     -3.19307000
 Ni      2.96358000     -1.20688000      2.51082000
 Ni     -1.92875000     -3.09432000     -0.76063300
 Ni      3.21807000      1.25206000      1.81763000
 Ni      0.86479100      0.75409600     -1.08403000
 Ni     -1.43842000      0.35112600     -3.90296000
 Ni     -3.73977000     -1.48298000     -1.84947000
 Ni      1.13315000      1.95466000      3.50508000
 Ni     -1.21051000      0.92895700      3.25769000
 Ni      2.55577000     -3.19673000      0.58961500
 Ni     -1.94865000     -3.56133000      1.72248000
 Ni     -3.07222000      2.98168000     -0.64443500
 Ni      1.21694000      2.68177000      0.77555500
 Ni     -3.06825000      2.22966000      2.06360000
 Ni     -3.46601000     -0.43916100      2.67885000
 Ni      0.91718700      1.42519000     -3.73904000
 Ni     -1.13119000      1.46308000      0.43349800
 Ni     -3.82279000     -2.12222000      0.95466600
 Ni     -1.53836000     -1.75026000      3.59934000
 Ni     -3.50061000      1.00824000     -2.38806000
 Ni      0.65145000     -2.58619000      2.26192000
  C      2.78044000     -1.03834000      4.60838000
  O      3.41578000     -1.31481000      5.74950000
  C     -2.00493000      4.11050000     -1.70430000
  O     -2.29714000      5.21956000     -2.30931000
  C      1.12961000      5.04607000     -0.89769100
  O      1.43060000      6.33631000     -1.20452000
  C      1.07624000      3.58965000      4.37699000
  O      1.48456000      4.19214000      5.44705000
  C      2.94974000      3.66733000      1.23386000
  O      3.48047000      4.84327000      1.55060000
  C     -3.54920000     -3.12452000      2.65223000
  O     -4.24785000     -4.15886000      3.21174000
  C      0.48507300      3.36215000     -3.58313000
  O      0.57784100      4.26781000     -4.49843000
  C     -3.85637000     -3.14064000     -0.81146300
  O     -4.65506000     -4.15206000     -0.96099200
  C     -3.00761000     -0.74879300      4.63215000
  O     -3.90404000     -1.05184000      5.62175000
  C     -0.28598100      0.62839500      4.81435000
  O     -0.47672000      0.71987100      6.08661000
  C      3.36709000      3.23407000     -2.32815000
  O      4.29906000      4.06989000     -2.83706000
  C     -1.46998000     -4.82930000     -0.39874000
  O     -1.89414000     -6.03009000     -0.57838200
  C      0.07332010     -1.87550000     -4.69503000
  O      0.49457100     -2.25243000     -5.90278000
  C     -2.01735000     -4.22494000     -2.97969000
  O     -2.65899000     -4.98633000     -3.89990000
  C     -4.82924000      1.21388000      2.29735000
  O     -5.75176000      1.82206000      2.99472000
  C     -0.12581800     -2.74957000      4.69506000
  O     -0.13022800     -3.45606000      5.84057000
  C     -3.03385000     -0.91202200     -4.03473000
  O     -3.59210000     -1.12247000     -5.18303000
  C     -0.36454300      1.24443000     -5.34110000
  O     -0.39906500      1.58373000     -6.64780000
  C      3.69065000      1.39093000      3.63763000
  O      4.75663000      1.78011000      4.31128000
  C     -5.32182000     -0.01769170     -2.05483000
  O     -6.44725000     -0.41733400     -2.69363000
  C      4.91131000      1.73947000      0.39440300
  O      6.14230000      2.23797000      0.42703000
  C     -2.89813000      2.33129000     -3.82686000
  O     -3.66735000      3.09748000     -4.64461000
  C      3.09853000     -1.93963000     -3.83036000
  O      3.94394000     -2.53920000     -4.68164000
  C      1.61728000     -4.72882000     -3.06963000
  O      1.77889000     -5.80568000     -3.77781000
  C     -0.13633200     -4.37761000      2.22994000
  O      0.03039850     -5.42794000      2.96897000
  C     -2.80132000      4.01114000      1.07050000
  O     -3.46988000      5.09194000      1.30785000
  C      2.69873000      0.94244300     -4.45403000
  O      3.41378000      1.14732000     -5.59672000
  C      4.69329000     -0.95244000      1.64648000
  O      5.96154000     -1.28695000      1.87777000
  C     -4.53197000      1.95599000     -0.93259600
  O     -5.73583000      2.41523000     -0.93543300
  C      4.75454000      0.04290190     -1.88283000
  O      5.98583000     -0.05026280     -2.36132000
  C      4.17877000     -2.89048000     -0.62651000
  O      5.34420000     -3.56301000     -0.82252800
  C     -5.09933000     -0.60049500      1.33892000
  O     -6.31027000     -1.10143000      1.45524000
  C      2.03271000     -4.97138000     -0.14033900
  O      2.63637000     -6.20991000     -0.00390846
  C      2.68024000     -3.21698000      2.53238000
  O      3.36462000     -4.02274000      3.27983000
  C      0.02804760      5.19636000      1.59699000
  O     -0.04253350      6.40208000      2.20224000
  C     -1.94861000      2.62705000      3.60883000
  O     -2.27643000      3.26479000      4.69158000

