110
Energy = -11619.79472593 au
 Ni      2.52785000      1.09158000     -2.73509000
 Ni      0.78104300     -1.00288000     -0.21355200
 Ni      3.29995000      2.72358000     -0.89910900
 Ni     -3.16886000     -1.77371000      1.95685000
 Ni     -1.51128000     -2.17591000     -0.05406750
 Ni      1.37638000     -1.89585000      2.12085000
 Ni      1.50264000      0.62225500      1.62605000
 Ni     -2.37734000     -0.13359000      3.79939000
 Ni      0.19527000     -0.11244100     -2.54724000
 Ni     -1.24091000      2.83982000     -1.05348000
 Ni      0.93064300      1.51709000     -0.71524600
 Ni      0.30879800      2.41276000     -3.09253000
 Ni     -3.58116000      1.67026000     -0.91996500
 Ni      0.08656650      3.61862000      3.13298000
 Ni     -0.64971200      1.96169000      1.27566000
 Ni     -2.00675000      1.22411000     -2.94705000
 Ni     -3.72225000     -0.85536900     -0.42325400
 Ni      2.37923000     -1.47958000     -2.23971000
 Ni     -0.52000500      4.51897000      0.77380700
 Ni      3.08015000      0.18136900     -0.36963600
 Ni     -2.83728000      3.31459000      0.94718700
 Ni     -1.37197000      0.33653500     -0.56500500
 Ni      0.06049100     -2.68449000     -2.09208000
 Ni      2.97035000     -2.37720000      0.12020800
 Ni     -2.24887000      2.42566000      3.28389000
 Ni     -0.05898920      1.07177000      3.62185000
 Ni      1.06425000      4.05286000     -1.21715000
 Ni      3.83896000      1.82163000      1.46860000
 Ni     -0.93566900     -3.09544000      2.29257000
 Ni     -2.96353000      0.78209900      1.42675000
 Ni     -0.18119500     -1.44846000      4.15573000
 Ni      2.12103000     -0.25874900      3.99946000
 Ni     -2.14230000     -1.32507000     -2.44662000
 Ni     -0.79934900     -0.55787900      1.77662000
 Ni      3.69744000     -0.71234000      1.98027000
 Ni      2.24316000      2.28189000      3.47474000
 Ni      0.67013100     -3.56533000      0.27786800
 Ni      1.65633000      3.15226000      1.12090000
  C      1.73252000     -2.76015000     -4.27687000
  O      2.30013000     -3.49110000     -5.17605000
  C     -0.41592300     -5.19239000      1.01372000
  O     -0.33251900     -6.47689000      1.05677000
  C     -3.09278000     -3.73953000      2.84646000
  O     -3.62960000     -4.84661000      3.28808000
  C      4.95949000     -2.06626000      0.19905800
  O      6.10187000     -2.68730000      0.53045400
  C     -4.33297000     -1.28593000     -2.93823000
  O     -5.49686000     -1.47398000     -3.41579000
  C     -4.13928000      2.37109000      2.10011000
  O     -5.08638000      3.16070000      2.47861000
  C      3.50021000      4.26799000      0.59010700
  O      4.63493000      4.93516000      0.39915700
  C     -2.12650000      0.93370800      5.67662000
  O     -3.01140000      1.68341000      6.24928000
  C      3.72848000     -1.47315000      3.96286000
  O      4.77015000     -1.94458000      4.69916000
  C     -5.14063000      0.70710000     -0.19491000
  O     -6.45512000      0.90774600     -0.14339700
  C      4.51207000     -1.50962000     -2.21205000
  O      5.50825000     -1.87847000     -2.93412000
  C      2.58694000     -4.80665000     -1.74782000
  O      3.50410000     -5.71019000     -1.78987000
  C     -4.36580000      3.04827000     -3.03786000
  O     -5.47678000      3.67026000     -3.23944000
  C     -2.33909000      4.92659000     -0.78025800
  O     -3.14787000      5.91132000     -0.39830200
  C      4.91534000      1.41094000     -2.09369000
  O      5.97575000      1.92854000     -2.61873000
  C      0.68223600     -0.22469400      5.61313000
  O      1.28161000     -0.65612100      6.66463000
  C     -4.85844000     -0.49640200      2.44433000
  O     -5.69841000     -0.65586700      3.48405000
  C     -2.95981000      0.88297800     -4.64903000
  O     -3.60164000      1.13021000     -5.72394000
  C      2.72208000     -4.02621000      1.76748000
  O      3.29428000     -5.05503000      2.29177000
  C      0.71174600      1.66209000      5.53100000
  O      0.89437200      2.71833000      6.42182000
  C     -5.28863000     -2.78855000     -0.29130900
  O     -6.36885000     -3.27825000      0.21327100
  C      2.55088000      0.33587600     -4.84510000
  O      3.42736000      0.55470200     -5.75599000
  C     -0.19362100     -0.82870500     -4.92284000
  O     -0.23053800     -1.03123000     -6.19403000
  C     -0.08184090     -4.73597000     -2.58003000
  O     -0.07687180     -5.89914000     -3.16961000
  C      0.45288200      5.74072000     -0.44852200
  O      0.77054800      7.05202000     -0.47941500
  C      0.15860700      2.08235000     -5.08317000
  O      0.22304600      2.79974000     -6.13789000
  C      0.67316600     -3.97570000      3.61792000
  O      0.67746500     -4.67372000      4.70716000
  C      5.84889000      0.66217800      0.18455600
  O      6.84906000      0.97759800      0.93182300
  C      1.86643000      4.38866000      2.68944000
  O      2.37464000      5.44829000      3.21920000
  C     -1.09703000      4.00797000     -2.91252000
  O     -1.45425000      5.12663000     -3.60012000
  C      4.58677000      1.89084000      3.34834000
  O      5.05806000      2.18867000      4.52936000
  C     -1.91469000     -1.51980000      5.12132000
  O     -2.50185000     -2.00721000      6.28484000
  C     -2.20826000     -2.82108000     -3.88638000
  O     -2.73969000     -3.47250000     -4.83887000
  C     -2.85955000     -4.24371000     -1.00776000
  O     -3.53399000     -5.30831000     -1.27282000
  C      2.71896000      3.92318000     -2.70600000
  O      3.12363000      4.86826000     -3.54449000
  C     -1.70169000      4.40429000      2.55471000
  O     -1.82611000      5.43132000      3.35821000
