#B3LYP/6-31+G(d) OPT FREQ

110, Energy = -12689.00402715 au

0 1
 Ni     -0.09112930     -3.32653000     -2.39353000
 Ni     -1.45758000     -0.11087100     -1.28171000
 Ni      0.26360500     -4.18553000      0.15064800
 Ni     -0.54325700      4.27013000     -0.33956200
 Ni     -1.30983000      2.53064000     -2.16455000
 Ni     -3.24659000      0.66176500      0.69653400
 Ni     -1.01492000     -0.76316100      1.17449000
 Ni     -0.08572970      3.50983000      2.09723000
 Ni      0.25188300     -0.89382000     -3.41366000
 Ni      3.06304000     -0.40740000     -0.97436700
 Ni      0.61026400     -1.53875000     -0.69677000
 Ni      2.29146000     -2.29062000     -2.65126000
 Ni      3.19492000      2.06970000     -1.81390000
 Ni      1.81812000     -0.37463400      3.56507000
 Ni      1.33251000      0.28211100      0.99303600
 Ni      2.62919000      0.24476200     -3.43852000
 Ni      1.16288000      3.43983000     -2.40993000
 Ni     -2.18940000     -1.89902000     -2.98973000
 Ni      3.45630000     -1.12850000      1.61013000
 Ni     -1.85610000     -2.68294000     -0.44928800
 Ni      3.74399000      1.37043000      0.83743200
 Ni      0.87885200      0.94566600     -1.47619000
 Ni     -1.91923000      0.61378400     -3.71164000
 Ni     -3.91894000     -1.15453000     -1.06194000
 Ni      2.06238000      2.08011000      2.90179000
 Ni     -0.26946500      1.00747000      3.12546000
 Ni      2.66244000     -2.99543000     -0.10706800
 Ni     -1.43224000     -3.30569000      2.02051000
 Ni     -2.76906000      3.24866000     -0.13155300
 Ni      1.61216000      2.75861000      0.21956500
 Ni     -2.43523000      2.51994000      2.30869000
 Ni     -2.69924000     -0.02794410      3.17302000
 Ni      0.44245800      1.61786000     -4.00581000
 Ni     -0.74883400      1.71738000      0.40519600
 Ni     -3.46591000     -1.89035000      1.40993000
 Ni     -0.74276000     -1.50876000      3.68968000
 Ni     -3.61935000      1.29346000     -1.89199000
 Ni      1.07889000     -2.26420000      1.82236000
  C     -4.35791000      3.13076000      1.58499000
  O     -5.11573000      4.24532000      1.51036000
  C     -1.52750000     -0.09826140      4.64893000
  O     -1.73276000     -0.03003730      5.91576000
  C      2.25932000      1.88653000     -4.24455000
  O      2.79539000      2.28644000     -5.35249000
  C      4.19983000      3.17078000     -0.31593500
  O      5.27080000      3.97265000     -0.55507900
  C      4.19901000     -2.27150000     -2.10894000
  O      5.29805000     -2.72360000     -2.73063000
  C     -3.21230000      3.20150000     -1.97561000
  O     -3.92126000      4.03963000     -2.67080000
  C      3.99520000      2.43435000      2.55801000
  O      4.99576000      3.05102000      3.23717000
  C      1.52426000      1.20744000      4.50763000
  O      1.71822000      1.44064000      5.75655000
  C      1.29691000     -4.01323000     -3.56450000
  O      1.52249000     -5.08262000     -4.34217000
  C     -1.70650000      2.70894000      4.15523000
  O     -2.15246000      3.35736000      5.23961000
  C      4.22324000      0.70268000     -2.59739000
  O      5.39380000      0.79643700     -3.12367000
  C      2.19558000     -3.79125000      2.29123000
  O      2.61489000     -4.69102000      3.14649000
  C     -0.74274200      3.03175000     -3.88697000
  O     -1.19322000      3.84944000     -4.77606000
  C      2.73789000      4.50250000     -2.71545000
  O      3.04078000      5.54436000     -3.42043000
  C     -1.77614000     -4.37458000     -1.88981000
  O     -2.42451000     -5.50073000     -2.28197000
  C      1.66724000      4.72631000      0.66634200
  O      2.40267000      5.83479000      0.78968900
  C     -4.01849000      1.19748000      2.63356000
  O     -5.18400000      1.29127000      3.18376000
  C      1.23212000      3.70201000      3.64852000
  O      1.59277000      4.68226000      4.52212000
  C      2.07017000     -1.31842000     -4.28130000
  O      2.38231000     -1.73864000     -5.46810000
  C     -4.24472000     -2.52255000     -2.49014000
  O     -5.37268000     -3.00146000     -3.04115000
  C     -3.12538000     -1.92196000      3.28213000
  O     -3.90921000     -2.41833000      4.18694000
  C     -5.11745000     -0.95483100      0.39970500
  O     -6.18987000     -1.54971000      0.82411800
  C      3.80036000     -0.62745100      3.53772000
  O      4.78700000     -0.85545900      4.44644000
  C      4.51815000     -2.60752000      0.81649300
  O      5.66058000     -3.27132000      1.10269000
  C     -0.74603400     -3.82585000      3.87351000
  O     -1.10608000     -4.84930000      4.63174000
  C     -5.37533000      0.43977000     -0.47293700
  O     -6.33393000      1.10566000     -0.93820500
  C     -4.20773000      0.40586100     -3.62611000
  O     -4.82686000      0.63690400     -4.79366000
  C     -1.41025000     -2.39068000     -4.65527000
  O     -1.83733000     -3.05957000     -5.73091000
  C     -1.52926000      4.61642000      1.31897000
  O     -1.78079000      5.78498000      1.82916000
  C      1.15834000     -1.95595000      4.60184000
  O      1.45115000     -2.46216000      5.83526000
  C      2.19195000     -4.79500000     -0.93086900
  O      2.94854000     -5.90854000     -0.96830700
  C     -0.46173000      0.29819600     -4.94546000
  O     -0.59558300      0.16881500     -6.23080000
  C     -0.80967500     -5.65377000      0.95367400
  O     -0.57533800     -6.92957000      1.01123000
  C     -3.01410000     -3.64597000      0.91613200
  O     -3.77744000     -4.69284000      0.89557200
  C     -0.99417400      5.12461000     -2.16772000
  O     -1.24027000      6.41879000     -2.16988000
  C      5.15107000      0.10917600      0.39970400
  O      6.50314000      0.20612200      0.42948300

