110
Energy = -12705.75760465 au
 Ni      0.81282100     -3.55277000     -2.65920000
 Ni     -1.12440000     -0.39125600     -1.66082000
 Ni      1.21312000     -4.18291000     -0.10205600
 Ni     -0.80074100      3.99591000     -0.61578700
 Ni     -1.09688000      2.30106000     -2.59417000
 Ni     -3.06217000      0.14837000      0.10660100
 Ni     -0.74314100     -0.98679500      0.83865400
 Ni     -0.36927100      3.48314000      1.78804000
 Ni      0.60449800     -1.06312000     -3.78259000
 Ni      3.45246000     -0.19258400     -1.02505000
 Ni      1.09131000     -1.54057000     -0.93241000
 Ni      2.95937000     -2.07622000     -2.74305000
 Ni      3.24576000      2.33878000     -1.88057000
 Ni      1.90645000     -0.26203000      3.43480000
 Ni      1.46782000      0.37863300      0.81522300
 Ni      2.99222000      0.35495100     -3.53040000
 Ni      1.10501000      3.49756000     -2.49127000
 Ni     -1.53550000     -2.39246000     -3.36131000
 Ni      3.78176000     -0.78908600      1.63039000
 Ni     -1.11185000     -3.22213000     -0.95875200
 Ni      3.71828000      1.76108000      0.79708100
 Ni      1.09068000      0.96922300     -1.69833000
 Ni     -1.60997000      0.26858500     -4.11504000
 Ni     -3.39294000     -1.82810000     -1.66280000
 Ni      1.82753000      2.31628000      2.59589000
 Ni     -0.41373300      0.96418000      2.72696000
 Ni      3.30156000     -2.75110000     -0.25466600
 Ni     -0.74477000     -3.55417000      1.60465000
 Ni     -3.07344000      2.74434000     -0.69962900
 Ni      1.54885000      3.19892000     -0.03385470
 Ni     -2.77338000      2.10654000      1.94463000
 Ni     -2.63352000     -0.39153200      2.74026000
 Ni      0.80546800      1.60872000     -4.28060000
 Ni     -0.76353000      1.52336000      0.07473840
 Ni     -3.03732000     -2.39193000      0.80073300
 Ni     -0.38371800     -1.58626000      3.44838000
 Ni     -3.52608000      0.69629400     -2.39541000
 Ni      1.59177000     -2.27451000      1.59873000
  C      0.07401850     -5.43522000      1.18583000
  O      0.03593770     -6.68235000      1.66187000
  C      0.11004800     -4.87557000     -1.53205000
  O     -0.01783650     -6.10254000     -1.83747000
  C     -1.58830000     -3.17578000      3.62591000
  O     -1.94156000     -3.95591000      4.66553000
  C     -4.64362000      0.82191000      1.15561000
  O     -5.96983000      0.83311900      1.23750000
  C     -2.09978000      4.47996000      1.51218000
  O     -2.49949000      5.63584000      2.10338000
  C     -5.37575000      0.93345100     -1.90288000
  O     -6.43886000      1.10069000     -2.61261000
  C      2.86042000     -4.21187000      0.82878500
  O      3.58574000     -5.19081000      1.19493000
  C      2.84095000      1.48270000      4.15093000
  O      3.55875000      1.88412000      5.21735000
  C     -2.57693000     -3.49857000     -2.17586000
  O     -3.15182000     -4.61472000     -2.51353000
  C      4.98351000      0.77397400      1.88953000
  O      6.27382000      0.99224700      2.27729000
  C     -2.74932000     -4.41427000      0.76894400
  O     -3.56864000     -5.45134000      1.01851000
  C      5.12012000     -1.79621000      0.21002000
  O      6.38547000     -2.28705000      0.32034100
  C      4.33152000     -0.77017900     -2.68571000
  O      5.55681000     -0.99875200     -3.03592000
  C      2.64238000      2.05517000     -4.25558000
  O      3.25411000      2.50659000     -5.30215000
  C      0.10594300      3.33307000     -4.05588000
  O     -0.01683500      4.19962000     -5.00770000
  C      1.32337000     -3.21034000      3.46346000
  O      1.89112000     -4.10373000      4.27148000
  C     -4.45281000      3.93260000     -0.25027300
  O     -5.44222000      4.69647000     -0.46679900
  C      2.37102000     -1.37567000     -4.39563000
  O      2.63073000     -1.82134000     -5.58408000
  C     -0.03004130     -3.07829000     -4.27083000
  O     -0.08197330     -3.77976000     -5.35300000
  C     -3.69280000      2.26258000      3.68513000
  O     -4.59432000      2.97545000      4.24611000
  C     -0.10259300      0.27501000     -5.26908000
  O     -0.20786600      0.22651500     -6.55873000
  C     -3.01618000     -1.15126000     -3.82818000
  O     -3.83289000     -1.46998000     -4.78886000
  C     -0.47567300      2.28085000      4.23062000
  O     -0.70267700      2.57631000      5.47472000
  C     -4.18484000     -1.73389000      2.45618000
  O     -5.24201000     -2.17684000      3.15646000
  C     -1.79812000      4.52565000     -2.16214000
  O     -2.15331000      5.71339000     -2.70671000
  C      3.66143000     -1.62656000      3.51091000
  O      4.61761000     -1.94046000      4.40171000
  C     -2.16297000     -0.26633200      4.65689000
  O     -2.85602000     -0.31978800      5.80284000
  C     -5.03177000     -1.93504000     -0.51564200
  O     -6.20339000     -2.49231000     -0.78924300
  C      5.02796000      1.58897000     -1.04876000
  O      6.21284000      2.06054000     -1.57489000
  C      1.10936000      4.22941000      2.98743000
  O      1.36273000      5.27847000      3.78998000
  C      0.66016600     -0.68374300      5.06890000
  O      0.85874900     -0.93475100      6.37562000
  C      3.34084000      3.63199000      1.11468000
  O      4.16035000      4.73429000      1.31156000
  C      2.78242000      4.14227000     -2.02805000
  O      3.39387000      5.18544000     -2.47011000
  C     -2.61212000      1.89589000     -3.66609000
  O     -3.19094000      2.68860000     -4.50780000
  C      0.69643900      4.92012000      0.04224890
  O      1.00338000      6.14793000      0.06975740
  C      2.75331000     -3.84250000     -2.08576000
  O      3.44980000     -4.82424000     -2.58430000
