#B3LYP/6-31+G(d) OPT FREQ

110, Energy = -12587.05085411 au

0 1
 Ni      3.24881000     -1.34968000     -2.43544000
 Ni     -0.22274800     -1.82391000     -0.91807400
 Ni      4.22204000     -1.21623000      0.22279700
 Ni     -4.10738000      0.45434500      0.16284200
 Ni     -2.60746000     -0.91730600     -1.61524000
 Ni     -1.41564000     -3.22914000      1.23464000
 Ni      0.70197900     -1.42410000      1.41959000
 Ni     -3.28978000      0.67409700      2.51831000
 Ni      0.75105600     -0.41582300     -2.97034000
 Ni      1.34864000      2.62211000     -0.81722700
 Ni      1.77214000     -0.10856900     -0.53691800
 Ni      2.72438000      1.29946000     -2.58119000
 Ni     -1.19595000      3.48806000     -1.49471000
 Ni      1.29745000      1.64763000      3.64940000
 Ni      0.30964700      1.17696000      1.20332000
 Ni      0.27990500      2.17088000     -3.23114000
 Ni     -3.15560000      1.76379000     -1.86884000
 Ni      1.19473000     -3.08135000     -2.81609000
 Ni      2.36378000      3.10502000      1.54275000
 Ni      2.56491000     -2.95299000     -0.37521200
 Ni     -0.07269070      3.83770000      1.02282000
 Ni     -0.66336100      0.81092300     -1.17923000
 Ni     -1.18153000     -2.41676000     -3.24804000
 Ni      0.27922200     -4.35224000     -0.77580400
 Ni     -1.22611000      2.48920000      2.96172000
 Ni     -0.78392500     -0.13556400      3.20488000
 Ni      3.89786000      1.69599000     -0.13300100
 Ni      2.84514000     -2.37820000      2.31466000
 Ni     -3.67870000     -2.09069000      0.48352800
 Ni     -2.14189000      2.11212000      0.58506300
 Ni     -2.80199000     -1.81092000      2.88027000
 Ni     -0.22247200     -2.75652000      3.56148000
 Ni     -1.66777000      0.40484300     -3.67362000
 Ni     -1.68774000     -0.52408400      0.82041100
 Ni      0.98136200     -3.98366000      1.59531000
 Ni      1.60566000     -1.15854000      3.84280000
 Ni     -2.05872000     -3.69108000     -1.33931000
 Ni      2.81220000      0.37021600      2.00022000
  C     -3.41546000     -0.75195000      4.39197000
  O     -4.31087000     -0.97814900      5.35886000
  C      5.08725000     -1.25824000     -1.52110000
  O      6.36734000     -1.54961000     -1.89439000
  C      4.23433000     -2.98009000      0.84314000
  O      5.17759000     -3.84243000      1.18499000
  C     -2.11044000      4.28642000      2.08402000
  O     -2.69904000      5.42264000      2.44125000
  C      1.98898000      5.01499000      0.98573700
  O      2.49756000      6.14908000      1.45286000
  C     -3.43791000      1.61085000     -3.84086000
  O     -4.33785000      1.98349000     -4.76648000
  C     -1.90762000     -3.49707000      3.10670000
  O     -2.40511000     -4.52360000      3.72883000
  C      0.43309200      3.73111000      3.57483000
  O      0.46545200      4.73210000      4.50817000
  C      3.44775000     -1.55366000      4.02297000
  O      4.21592000     -1.82091000      5.03188000
  C     -0.15479700     -1.67309000      5.24011000
  O     -0.34213200     -1.97191000      6.53362000
  C      1.92457000     -4.67897000      0.10744500
  O      2.60208000     -5.78471000      0.06190020
  C     -0.22562200      5.08330000     -0.74211400
  O     -0.34495200      6.41905000     -0.93357500
  C      1.18924000      0.70503000      5.29716000
  O      1.46715000      0.98372400      6.56229000
  C     -0.44949600      0.66698000     -5.12742000
  O     -0.54212000      0.80682200     -6.44910000
  C      0.46972200     -2.48917000     -4.64029000
  O      0.60301000     -2.91892000     -5.91916000
  C      1.43162000     -3.73357000      3.47369000
  O      1.66388000     -4.75603000      4.25629000
  C     -3.10596000     -4.26922000     -2.80112000
  O     -3.77375000     -5.31213000     -3.19048000
  C      4.95702000     -0.03627200      1.68054000
  O      6.10956000      0.12436300      2.36961000
  C      3.03689000     -3.24783000     -2.29580000
  O      3.85988000     -4.10269000     -2.81870000
  C     -5.08854000      1.91099000     -0.93639200
  O     -6.32190000      2.28346000     -1.28882000
  C      2.34080000      3.77196000     -1.98720000
  O      2.75758000      4.99181000     -2.23071000
  C      3.02556000      2.06917000      3.04323000
  O      3.99957000      2.48925000      3.79720000
  C      4.63833000      1.38398000     -2.35995000
  O      5.63225000      1.85337000     -3.11808000
  C     -4.67063000     -1.25257000     -1.58057000
  O     -5.68178000     -1.61803000     -2.38353000
  C      2.91310000     -0.71861400     -4.21742000
  O      3.40205000     -0.89764200     -5.45139000
  C     -3.84426000     -3.94740000      0.82349100
  O     -4.81735000     -4.79935000      1.13858000
  C     -4.67130000     -0.77947900      1.59617000
  O     -5.93168000     -0.88100800      1.89847000
  C     -1.89933000      1.62479000      4.55436000
  O     -2.38426000      1.92910000      5.77066000
  C     -3.23424000      3.88033000     -1.11062000
  O     -4.10851000      4.89090000     -1.27787000
  C     -1.20976000      3.82587000     -3.47679000
  O     -1.49464000      4.83095000     -4.30664000
  C     -4.30313000      2.34179000      1.98163000
  O     -5.15176000      3.14043000      2.60292000
  C     -0.04059320     -4.50213000     -2.66111000
  O      0.13783500     -5.64273000     -3.26977000
  C      4.91739000      3.09801000      0.60396900
  O      6.04137000      3.71496000      0.42903100
  C     -1.04399000     -4.92338000      0.44076200
  O     -1.39537000     -6.12442000      0.76593200
  C      1.89047000      2.26838000     -4.38711000
  O      2.27108000      2.86715000     -5.52145000
  C     -2.79758000     -1.35262000     -4.27040000
  O     -3.58437000     -1.66920000     -5.31685000

