110
Energy = -12055.30700290 au
 Ni     -0.02488910     -3.57081000     -2.34238000
 Ni     -1.54860000     -0.42016500     -1.17284000
 Ni      0.50862900     -4.27476000      0.08947150
 Ni     -0.82941600      3.99228000     -0.23350000
 Ni     -1.48118000      2.09742000     -1.92651000
 Ni     -3.20727000      0.22410300      0.68977900
 Ni     -1.01832000     -1.06037000      1.24781000
 Ni     -0.30899300      3.30040000      2.21667000
 Ni      0.06202420     -1.06576000     -3.09694000
 Ni      2.86932000     -0.49787000     -0.82426000
 Ni      0.60926200     -1.71441000     -0.63434900
 Ni      2.25839000     -2.33739000     -2.53651000
 Ni      2.99601000      2.01319000     -1.57878000
 Ni      1.82870000     -0.52634100      3.50405000
 Ni      1.24184000      0.13198100      1.05335000
 Ni      2.35545000      0.16528200     -3.29938000
 Ni      0.78293100      3.29761000     -2.11019000
 Ni     -2.19280000     -2.28247000     -2.89826000
 Ni      3.44265000     -1.15066000      1.63536000
 Ni     -1.66198000     -2.93723000     -0.44819600
 Ni      3.55170000      1.35024000      0.89960300
 Ni      0.70832100      0.76989800     -1.36639000
 Ni     -2.08894000      0.24234400     -3.63803000
 Ni     -3.86264000     -1.62120000     -1.00641000
 Ni      1.90588000      1.96993000      2.77927000
 Ni     -0.38603900      0.76900600      2.94506000
 Ni      2.78468000     -3.01994000     -0.09497790
 Ni     -1.12343000     -3.57254000      2.00529000
 Ni     -3.10549000      2.70837000     -0.03534550
 Ni      1.33177000      2.61033000      0.32486000
 Ni     -2.58863000      2.04847000      2.42177000
 Ni     -2.65677000     -0.46349400      3.16787000
 Ni      0.15728100      1.42816000     -3.83566000
 Ni     -0.91764400      1.42457000      0.51521500
 Ni     -3.27597000     -2.30868000      1.46887000
 Ni     -0.47903700     -1.75317000      3.69808000
 Ni     -3.76120000      0.86238100     -1.71767000
 Ni      1.16052000     -2.36125000      1.81007000
  C     -5.30449000     -0.28344900     -1.25194000
  O     -6.51093000     -0.15467100     -1.69906000
  C      1.90324000     -4.65221000     -1.91316000
  O      2.08430000     -5.77960000     -2.67730000
  C     -4.60906000      1.91710000      0.93914000
  O     -5.76158000      2.45823000      1.12650000
  C     -0.88421900     -2.92765000     -4.24129000
  O     -1.22647000     -3.64637000     -5.25050000
  C     -2.48865000      4.67031000      0.59595300
  O     -3.32138000      5.77941000      0.60439800
  C      5.51143000      1.97420000      0.82946300
  O      6.63926000      2.45844000      1.24906000
  C      1.34814000      4.76447000     -0.48013400
  O      1.72827000      6.06012000     -0.58092700
  C     -2.39328000     -2.40395000      3.76040000
  O     -2.94149000     -2.95490000      4.79343000
  C      3.11844000      1.25596000     -4.72299000
  O      3.99043000      1.35612000     -5.78753000
  C      1.82445000     -2.09484000     -4.44029000
  O      2.44917000     -2.76956000     -5.45983000
  C     -5.09817000     -1.77678000      0.81685800
  O     -6.20275000     -2.45788000      1.25631000
  C      3.55274000      0.83683900      3.58503000
  O      4.41614000      1.02433000      4.59452000
  C      0.38516200     -3.60068000      3.59649000
  O      0.48194900     -4.55916000      4.44576000
  C     -1.60467000     -4.72431000     -1.29448000
  O     -1.99962000     -5.84083000     -1.78975000
  C      2.79946000      3.72593000      1.98164000
  O      3.50795000      4.66197000      2.57258000
  C      4.23753000     -2.50152000     -1.64522000
  O      5.21866000     -3.19366000     -2.31877000
  C      3.76229000      3.97463000     -1.50890000
  O      4.76408000      4.55104000     -2.03984000
  C      0.02455010     -0.06407980     -5.06361000
  O      0.00594965     -0.09065280     -6.35033000
  C     -3.80933000     -3.28908000     -2.08574000
  O     -4.95407000     -3.89886000     -2.59576000
  C      4.64719000      0.33984100     -1.78276000
  O      5.88535000      0.39667400     -2.24407000
  C      3.10865000     -4.58190000      1.29459000
  O      4.06124000     -5.44372000      1.17096000
  C      1.39540000      3.12972000     -3.99464000
  O      1.75841000      4.12077000     -4.85888000
  C     -3.83940000     -0.79232200     -4.09453000
  O     -4.39036000     -0.80210000     -5.27738000
  C      0.76203700      2.43127000      4.33519000
  O      1.00136000      3.11246000      5.50395000
  C     -1.50880000      0.54325700      4.71705000
  O     -1.89909000      0.71377100      5.99642000
  C      0.78694800     -0.84450900      5.17598000
  O      1.15987000     -1.15452000      6.48153000
  C     -3.68759000      2.86937000     -2.15002000
  O     -4.65435000      3.47336000     -2.74373000
  C     -2.37121000      3.61854000      3.91864000
  O     -3.19838000      4.28376000      4.62611000
  C      0.07010180     -5.60230000      1.81203000
  O      0.32508800     -6.85798000      1.56234000
  C     -4.50552000      0.26736400      2.86249000
  O     -5.41148000      0.24340400      3.84237000
  C     -0.09080960      5.41570000      1.94085000
  O     -0.15454200      6.37732000      2.76344000
  C     -1.03108000      4.42412000     -2.12012000
  O     -1.32179000      5.56328000     -2.64318000
  C      3.08774000     -2.34485000      3.26771000
  O      3.85614000     -2.95929000      4.09945000
  C     -2.77269000     -4.25249000      1.18988000
  O     -3.37175000     -5.29926000      1.64069000
  C      5.25523000     -1.33762000      0.60177800
  O      6.38439000     -1.64737000      1.13849000
  C     -1.58431000      2.26798000     -4.18119000
  O     -1.98243000      2.87135000     -5.24555000
