110
Energy = -12621.66875640 au
 Ni      1.49191000     -3.11466000     -2.10852000
 Ni     -1.28371000     -0.72680000     -1.13484000
 Ni      1.92483000     -3.64907000      0.39709500
 Ni     -2.51471000      3.53933000     -0.08845950
 Ni     -2.18174000      1.74721000     -2.05014000
 Ni     -3.74241000     -0.96441800      0.53202200
 Ni     -0.85326400     -1.20305000      1.35855000
 Ni     -2.09165000      2.96856000      2.37894000
 Ni      0.75173400     -0.65807200     -2.85592000
 Ni      2.97017000      0.89182700     -0.23450600
 Ni      1.14688000     -1.13975000     -0.30610500
 Ni      3.23174000     -1.03219000     -2.06027000
 Ni      2.03016000      3.33538000     -1.03172000
 Ni      1.38051000      0.24467700      3.96307000
 Ni      0.82245500      0.76748500      1.42370000
 Ni      2.48498000      1.34171000     -2.81851000
 Ni     -0.30979900      3.74306000     -1.81303000
 Ni     -1.03322000     -2.76253000     -2.91969000
 Ni      3.30965000      0.34257200      2.41418000
 Ni     -0.44078300     -3.17771000     -0.43533600
 Ni      2.57508000      2.83467000      1.59725000
 Ni      0.39374000      1.23969000     -1.06604000
 Ni     -1.80170000     -0.15994800     -3.71959000
 Ni     -3.13516000     -2.72180000     -1.15256000
 Ni      0.63741100      2.73276000      3.16775000
 Ni     -1.25355000      0.72330200      3.36266000
 Ni      3.63904000     -1.63049000      0.45675700
 Ni     -0.27435400     -3.63636000      2.24767000
 Ni     -4.06904000      1.46609000     -0.30920100
 Ni      0.16978500      3.36634000      0.72304100
 Ni     -3.68819000      1.19232000      2.18024000
 Ni     -2.89148000     -1.42914000      2.96060000
 Ni     -0.06257530      1.77181000     -3.68085000
 Ni     -1.60046000      1.18077000      0.59755200
 Ni     -2.51999000     -3.15925000      1.31383000
 Ni     -0.52959500     -1.72551000      3.92327000
 Ni     -3.72777000     -0.22971000     -2.08985000
 Ni      1.67591000     -1.59662000      2.33050000
  C      1.97364000     -4.66852000     -1.17528000
  O      2.39032000     -5.80511000     -1.47987000
  C     -1.71340000     -4.78334000     -0.21452700
  O     -1.81563000     -6.10753000     -0.40097100
  C     -4.06716000      1.94564000     -2.09415000
  O     -4.86346000      2.60426000     -2.88464000
  C      4.62208000      0.90783200     -1.19032000
  O      5.87577000      1.33841000     -1.24955000
  C     -3.68558000     -3.20180000     -2.93358000
  O     -4.56971000     -4.08887000     -3.31043000
  C      3.07106000      3.13760000     -3.18249000
  O      3.78484000      3.77061000     -4.07433000
  C     -0.71273200     -1.69845000     -4.83858000
  O     -0.76470600     -2.06176000     -6.13339000
  C      5.07075000     -0.65839800      1.53437000
  O      6.34337000     -0.89017700      1.87819000
  C     -4.18353000      2.70625000      1.08049000
  O     -5.27885000      3.37732000      1.30169000
  C     -0.56340500     -4.58626000     -2.98441000
  O     -0.74223100     -5.52758000     -3.88380000
  C     -1.91929000      4.88681000      1.44131000
  O     -2.42181000      5.98284000      2.07451000
  C     -4.12286000     -2.98815000      0.49580500
  O     -5.23707000     -3.56939000      0.80700200
  C     -2.41261000     -1.12233000      5.03179000
  O     -3.26768000     -1.61734000      5.94247000
  C      2.55044000      1.87624000      4.13565000
  O      3.23081000      2.29289000      5.27830000
  C      1.99354000     -2.64922000     -3.90773000
  O      2.50849000     -3.25614000     -4.96923000
  C     -1.79460000      1.90595000     -4.35835000
  O     -2.30132000      2.50988000     -5.39823000
  C      2.95443000     -0.94022800      3.72783000
  O      3.72656000     -1.53215000      4.59529000
  C     -3.64138000     -0.58891100     -3.93692000
  O     -4.43837000     -0.75161900     -4.96840000
  C      3.55883000      4.08600000     -0.20694400
  O      4.31947000      5.14568000     -0.45089000
  C      3.46147000     -3.42936000      1.81736000
  O      4.34205000     -4.34105000      2.28389000
  C     -4.52595000     -0.45076600      2.24736000
  O     -5.80281000     -0.61529000      2.44061000
  C      0.47019100      4.82699000     -0.52571500
  O      0.50689400      6.14727000     -0.37220200
  C      1.20063000      0.77133700     -4.90863000
  O      1.51892000      0.79319500     -6.20812000
  C      0.85755700     -3.27945000      4.18621000
  O      1.04725000     -3.90184000      5.36751000
  C      0.84855000     -5.25141000      1.54596000
  O      1.14883000     -6.42701000      2.10053000
  C     -5.05216000     -0.34085500     -0.78390700
  O     -6.29174000     -0.66012400     -0.90712400
  C     -2.95679000      1.95607000      3.69339000
  O     -3.58393000      2.26206000      4.78485000
  C      1.57561000      4.20168000      2.40146000
  O      1.95909000      5.34320000      2.80140000
  C      4.48602000      2.29687000      1.90048000
  O      5.57256000      2.90234000      2.38113000
  C     -1.98553000     -3.58813000      2.99548000
  O     -2.45864000     -4.55971000      3.69979000
  C      3.74053000     -0.23590700     -3.81091000
  O      4.75334000     -0.32347600     -4.67677000
  C     -2.43585000      4.51240000     -2.01106000
  O     -3.03686000      5.69756000     -2.19024000
  C      0.48254600      3.96067000     -3.67337000
  O      0.44168700      5.02127000     -4.48819000
  C      4.16894000     -2.41186000     -1.19617000
  O      5.34033000     -3.07822000     -1.59050000
  C     -0.14813200     -0.16775300      4.96867000
  O     -0.26857900      0.04102260      6.24067000
  C     -0.82065900      3.04167000      4.54313000
  O     -0.85833900      3.83624000      5.60028000
