110
Energy = -12819.31104646 au
 Ni     -0.08969220     -3.74168000     -2.32570000
 Ni     -1.56240000     -0.46084100     -1.12165000
 Ni      0.48169300     -4.47550000      0.06432020
 Ni     -0.73056400      4.06607000     -0.08502880
 Ni     -1.55210000      2.29142000     -1.97961000
 Ni     -3.24935000      0.25226800      0.89614700
 Ni     -0.94661100     -1.12791000      1.31269000
 Ni     -0.15964000      3.24727000      2.36933000
 Ni     -0.01052350     -1.32013000     -3.33196000
 Ni      3.19534000     -0.67211400     -1.01403000
 Ni      0.61339200     -1.84239000     -0.63751400
 Ni      2.14199000     -2.67416000     -2.61634000
 Ni      3.21445000      1.81977000     -1.70063000
 Ni      2.07445000     -0.67539900      3.52215000
 Ni      1.35691000      0.00165726      1.04189000
 Ni      2.33481000      0.06499330     -3.37538000
 Ni      0.85843800      3.28782000     -2.17915000
 Ni     -2.34364000     -2.24570000     -2.89354000
 Ni      3.58749000     -1.46144000      1.54385000
 Ni     -1.78446000     -3.22038000     -0.43704900
 Ni      3.74216000      1.13528000      0.72972100
 Ni      0.74657600      0.67445300     -1.38929000
 Ni     -2.27275000      0.24874700     -3.54391000
 Ni     -3.93390000     -1.54481000     -0.89588500
 Ni      2.13773000      1.88573000      2.78608000
 Ni     -0.31968900      0.76650800      3.24707000
 Ni      2.85949000     -3.17493000     -0.21502900
 Ni     -1.13311000     -3.70623000      2.13428000
 Ni     -2.92947000      2.88971000      0.11100400
 Ni      1.58153000      2.62854000      0.30309400
 Ni     -2.28952000      2.25213000      2.63280000
 Ni     -2.47328000     -0.44383900      3.44567000
 Ni      0.00218732      1.34119000     -3.96538000
 Ni     -0.80312200      1.39094000      0.56330700
 Ni     -3.32296000     -2.26846000      1.52568000
 Ni     -0.31863100     -1.79043000      3.91106000
 Ni     -3.86743000      0.91496800     -1.55852000
 Ni      1.35981000     -2.81974000      2.03843000
  C      4.57143000     -1.53802000     -0.01053280
  O      5.81760000     -1.80863000     -0.21040500
  C      0.75256500      5.26864000      0.18607800
  O      0.79060100      6.57123000      0.15905700
  C     -3.88574000     -0.61961000     -2.99220000
  O     -4.88424000     -0.69559000     -3.82397000
  C     -2.28403000     -4.03509000     -3.64783000
  O     -2.89958000     -4.72337000     -4.55903000
  C      1.85030000     -1.07251000     -4.86641000
  O      2.25315000     -1.39594000     -6.10017000
  C     -1.01808000      2.41338000      4.03043000
  O     -1.10615000      2.81074000      5.25206000
  C      3.22187000     -3.30203000      1.61425000
  O      3.93031000     -4.22609000      2.19243000
  C      1.55322000      3.92218000      3.07555000
  O      1.89895000      4.93973000      3.91725000
  C      0.43023000     -4.69326000      1.89480000
  O      0.69576300     -5.81146000      2.49377000
  C     -1.52054000     -3.36610000      3.98728000
  O     -1.83245000     -4.22764000      5.03161000
  C      0.89381800     -3.36405000     -3.80213000
  O      0.97057000     -4.09257000     -4.84960000
  C      2.93718000      3.53158000     -2.74138000
  O      3.71506000      4.40633000     -3.39659000
  C     -1.29174000     -0.54601900      4.89639000
  O     -1.50332000     -0.47535700      6.14691000
  C     -4.58129000      2.74067000     -1.86023000
  O     -5.74734000      3.11552000     -2.32761000
  C     -4.39018000      2.66044000      1.46376000
  O     -5.45071000      3.41321000      1.74164000
  C      1.92500000     -4.54486000     -1.13061000
  O      2.49110000     -5.69741000     -1.34549000
  C      4.20279000     -0.56088200      3.28337000
  O      5.30082000     -0.86954700      4.02314000
  C     -1.81744000      4.03923000      1.89107000
  O     -2.22275000      5.11916000      2.49497000
  C     -1.93972000      2.03408000     -3.90716000
  O     -2.55579000      2.79908000     -4.74628000
  C      3.13827000      3.70110000      0.24577200
  O      3.74901000      4.86108000      0.39956900
  C      1.73681000      0.92595100      4.78772000
  O      2.10436000      1.18813000      6.07122000
  C     -4.36072000     -1.58734000      3.24383000
  O     -5.31105000     -2.21171000      3.93962000
  C      1.45089000     -2.34413000      4.08570000
  O      1.98301000     -3.01766000      5.05588000
  C     -0.89310900     -4.86503000     -1.10800000
  O     -1.36549000     -6.04236000     -1.37737000
  C     -4.87230000     -0.27338500      0.10382500
  O     -6.09462000     -0.11572300      0.49853300
  C      4.01189000      0.57978300     -2.82040000
  O      5.12347000      0.63223000     -3.47005000
  C     -1.12686000     -0.62121300     -4.71654000
  O     -1.29462000     -0.90780400     -5.96256000
  C     -4.34221000     -3.50656000     -0.85373800
  O     -5.52510000     -3.98097000     -1.19129000
  C     -0.33587100      4.48530000     -3.02174000
  O     -0.18162800      5.58083000     -3.78532000
  C     -2.67364000     -4.00119000      1.12048000
  O     -3.31193000     -5.13508000      1.15705000
  C     -3.82231000      1.14351000      3.62299000
  O     -4.72002000      1.46309000      4.54752000
  C     -2.31451000      4.20464000     -1.03369000
  O     -2.93971000      5.23737000     -1.49204000
  C      4.06539000      2.09951000      2.71430000
  O      5.02322000      2.67364000      3.45385000
  C      4.12935000     -2.62193000     -2.46021000
  O      5.03366000     -3.17021000     -3.26283000
  C      5.19958000      1.41320000     -0.47937000
  O      6.44793000      1.86688000     -0.35809100
  C      1.54460000      2.15809000     -4.95942000
  O      1.67138000      2.52390000     -6.20497000
