110
Energy = -12663.29566820 au
 Ni     -0.08132830     -3.38142000     -2.26421000
 Ni     -1.27716000      0.05765730     -1.10410000
 Ni      0.24473400     -4.09752000      0.35282600
 Ni     -0.01581110      4.41874000     -0.24912200
 Ni     -0.83676800      2.55315000     -1.87597000
 Ni     -2.92317000      0.92055000      0.79480500
 Ni     -0.88032000     -0.61512700      1.37209000
 Ni      0.34076400      3.69694000      2.41040000
 Ni      0.34316600     -0.82542600     -3.08503000
 Ni      3.27806000     -0.56637600     -0.83344800
 Ni      0.72611100     -1.47793000     -0.50487000
 Ni      2.43575000     -2.33109000     -2.48475000
 Ni      3.55408000      1.92761000     -1.48280000
 Ni      1.94913000     -0.29048300      3.61182000
 Ni      1.55862000      0.34275500      1.19037000
 Ni      2.70074000      0.16212500     -3.25572000
 Ni      1.58100000      3.51646000     -2.09112000
 Ni     -2.18059000     -1.78624000     -2.87531000
 Ni      3.72919000     -1.25611000      1.84580000
 Ni     -1.77620000     -2.50842000     -0.34611900
 Ni      4.12533000      1.20096000      1.10031000
 Ni      1.14779000      1.01469000     -1.24550000
 Ni     -1.71933000      0.74662900     -3.64465000
 Ni     -3.74980000     -0.83007800     -0.91705200
 Ni      2.39964000      2.12194000      2.94010000
 Ni     -0.17687700      1.28818000      3.34589000
 Ni      2.88718000     -2.99784000      0.14905100
 Ni     -1.36579000     -3.15570000      2.21190000
 Ni     -2.57734000      3.41592000      0.03505710
 Ni      2.11431000      2.98793000      0.42383900
 Ni     -2.20551000      2.67380000      2.62773000
 Ni     -2.51409000      0.09010470      3.30679000
 Ni      0.75193400      1.58676000     -3.80627000
 Ni     -0.45651800      1.88127000      0.62065500
 Ni     -3.36417000     -1.73873000      1.65109000
 Ni     -0.50137200     -1.32238000      3.83517000
 Ni     -3.35379000      1.61293000     -1.64302000
 Ni      1.22788000     -2.29868000      1.96896000
  C      1.38165000     -0.25585900     -4.59169000
  O      1.48748000     -0.63898400     -5.83191000
  C     -1.60618000     -3.59299000     -3.47875000
  O     -2.02129000     -4.52238000     -4.38914000
  C      3.16324000      3.72955000     -0.97120100
  O      4.00862000      4.71747000     -0.93077300
  C     -0.89907500      2.26517000     -4.92657000
  O     -1.07994000      2.66277000     -6.19413000
  C     -3.87958000      0.64638100     -3.41837000
  O     -4.87079000      0.88816700     -4.31488000
  C     -1.89729000      5.26198000     -0.23775300
  O     -2.46160000      6.49583000     -0.23874400
  C      3.85229000     -1.29208000     -3.10265000
  O      4.85123000     -1.62748000     -3.87727000
  C     -2.46180000      3.39533000     -2.81453000
  O     -2.81595000      4.39322000     -3.63866000
  C     -4.13775000     -2.29581000     -2.36778000
  O     -5.21057000     -2.83493000     -2.97440000
  C     -4.47518000      2.83646000     -0.14072400
  O     -5.51247000      3.24737000     -0.76354600
  C      3.76897000      0.55471000      3.96313000
  O      4.42058000      0.58950100      5.15450000
  C     -2.28571000     -2.02982000      3.81119000
  O     -2.82214000     -2.57380000      4.87426000
  C      3.40464000     -3.86194000     -1.58117000
  O      4.29502000     -4.83291000     -1.91742000
  C     -5.23419000     -0.14888200      0.06499400
  O     -6.54950000     -0.15393500      0.04620750
  C      0.37738400     -5.14233000     -1.38709000
  O      0.36294900     -6.46163000     -1.70136000
  C      2.66575000      2.18077000     -3.59176000
  O      3.30588000      2.67105000     -4.61041000
  C      4.54812000     -1.52830000      0.16122700
  O      5.78901000     -1.73536000     -0.19705000
  C     -1.45195000      4.55142000      3.03999000
  O     -1.69748000      5.53503000      3.93482000
  C      1.64591000      4.91613000      1.27551000
  O      1.62363000      6.18628000      0.94888400
  C     -4.18857000      3.00944000      1.47218000
  O     -4.87196000      3.57689000      2.42681000
  C     -4.26802000     -3.47087000      1.38602000
  O     -5.32807000     -3.97857000      1.90773000
  C     -4.47388000     -0.05557780      2.71244000
  O     -5.59173000      0.00257828      3.47806000
  C      5.68286000      0.89959000      2.25763000
  O      6.83927000      1.43049000      2.39585000
  C     -0.98089800     -5.14134000      2.12877000
  O     -1.27715000     -6.23285000      2.75058000
  C     -2.38423000     -4.31505000     -0.51244300
  O     -3.24726000     -5.24890000     -0.68790800
  C      1.90030000     -4.19336000      1.24904000
  O      2.35471000     -5.28373000      1.78761000
  C      0.95486100     -2.82403000      3.96238000
  O      1.41270000     -3.74052000      4.86787000
  C      5.22602000      0.99204100     -1.48746000
  O      6.37036000      1.28068000     -2.09635000
  C      1.22341000     -3.32942000     -3.84529000
  O      1.57749000     -4.25998000     -4.79960000
  C     -1.95140000      1.62805000      4.24049000
  O     -2.28326000      1.94651000      5.46857000
  C      3.89494000     -2.89498000      2.92817000
  O      4.95244000     -3.37177000      3.50845000
  C      0.19648100      4.93072000     -2.63336000
  O      0.40285900      5.96332000     -3.44886000
  C      0.43092500     -0.23293400      5.29518000
  O      0.51160900     -0.28855300      6.65352000
  C      0.99492200      2.56498000      4.10458000
  O      1.07043000      2.97709000      5.33521000
  C      2.83446000      3.97296000      2.04755000
  O      3.85318000      4.51339000      2.60392000
  C     -1.74648000     -0.99045700     -4.67719000
  O     -2.12632000     -1.31459000     -5.96698000
