#B3LYP/6-31+G(d) OPT FREQ

110, Energy = -12588.65848131 au

0 1
 Ni      0.56782200     -3.67602000     -2.18367000
 Ni     -1.16630000     -0.45364400     -1.20291000
 Ni      0.74912600     -4.27000000      0.21636600
 Ni     -0.49188400      3.95482000     -0.26888800
 Ni     -1.01621000      2.03386000     -1.93458000
 Ni     -2.97892000      0.27428000      0.49552100
 Ni     -0.85786000     -1.09818000      1.29626000
 Ni     -0.23251500      3.31878000      2.26212000
 Ni      0.77381900     -1.13885000     -3.02597000
 Ni      3.52001000     -0.55700800     -0.26359700
 Ni      0.93875000     -1.75625000     -0.41359700
 Ni      2.79853000     -2.43868000     -2.25352000
 Ni      3.48892000      1.95072000     -1.08237000
 Ni      1.78633000     -0.38004500      3.85938000
 Ni      1.43401000      0.10422900      1.33103000
 Ni      3.08394000      0.09404950     -2.82039000
 Ni      1.35470000      3.32005000     -1.90802000
 Ni     -1.64628000     -2.29313000     -2.95862000
 Ni      3.65752000     -1.18143000      2.20599000
 Ni     -1.56122000     -3.11985000     -0.40670400
 Ni      3.78368000      1.41415000      1.46859000
 Ni      1.15288000      0.73331700     -1.15443000
 Ni     -1.54742000      0.23072500     -3.71856000
 Ni     -3.54076000     -1.74975000     -1.29184000
 Ni      1.81959000      2.02048000      3.06809000
 Ni     -0.46203600      0.78317400      3.17116000
 Ni      3.01704000     -3.05703000      0.35257600
 Ni     -1.01258000     -3.75334000      2.07774000
 Ni     -2.88897000      2.72997000     -0.24437900
 Ni      1.65284000      2.61423000      0.57977300
 Ni     -2.57097000      2.14834000      2.26818000
 Ni     -2.76818000     -0.40131900      3.05133000
 Ni      0.87374900      1.41110000     -3.65454000
 Ni     -0.67581500      1.42663000      0.56163800
 Ni     -3.14759000     -2.27725000      1.30582000
 Ni     -0.63243400     -1.65113000      3.89493000
 Ni     -3.50169000      0.86644800     -2.01553000
 Ni      1.38234000     -2.50807000      2.32308000
  C      1.37573000     -4.34292000      1.97355000
  O      1.83879000     -5.34700000      2.64256000
  C      5.06399000      0.95991500     -1.69565000
  O      6.31161000      1.37204000     -1.99066000
  C      0.80740200      3.51547000      4.08587000
  O      1.01832000      4.42156000      5.05091000
  C      0.31705900      0.23430400     -5.12315000
  O      0.51017700      0.19626900     -6.47053000
  C      1.56812000      4.55555000      1.36276000
  O      2.26272000      5.67188000      1.58819000
  C     -5.08718000      1.77636000     -1.19743000
  O     -6.18658000      2.14273000     -1.80627000
  C      2.46960000     -4.15817000     -1.43315000
  O      3.14799000     -5.17988000     -1.86738000
  C      4.48631000     -3.17460000      1.88092000
  O      5.55122000     -3.97516000      1.88451000
  C      4.34966000     -1.67821000     -1.49870000
  O      5.58712000     -1.93296000     -1.76263000
  C     -4.19913000      3.25513000      1.25435000
  O     -5.17031000      4.13818000      1.46799000
  C     -1.82266000      2.74582000      4.00377000
  O     -2.28976000      3.39619000      5.09142000
  C     -1.82317000     -0.42668700      4.71083000
  O     -2.34372000     -0.31931200      5.88627000
  C      2.84742000      1.96653000     -3.86252000
  O      3.53375000      2.44145000     -4.95644000
  C      0.59119700     -3.22948000     -4.10883000
  O      0.95647100     -3.97847000     -5.17545000
  C      0.24667100      5.20958000     -1.82965000
  O      0.31377400      6.52450000     -1.98105000
  C      3.45383000      0.96560500      3.50800000
  O      4.27741000      1.32195000      4.44163000
  C     -2.61560000      3.89608000     -1.85982000
  O     -3.24005000      4.85891000     -2.54058000
  C      2.86002000     -1.52573000     -3.87087000
  O      3.47387000     -1.79391000     -4.97425000
  C     -2.88979000      1.80032000     -4.04274000
  O     -3.50025000      2.18885000     -5.16436000
  C     -1.59636000      4.77320000      1.39769000
  O     -1.85918000      6.02473000      1.83746000
  C     -3.57472000     -3.34287000     -0.24760200
  O     -4.43259000     -4.31321000     -0.23467400
  C     -0.02495540     -3.53216000      4.30574000
  O      0.01652630     -4.12455000      5.50773000
  C      4.22109000      3.30296000      0.89460400
  O      5.26242000      4.00583000      1.33560000
  C     -4.90736000     -0.86594100      0.34391800
  O     -6.23607000     -0.79055500      0.55650500
  C     -3.40905000     -2.37568000      3.26154000
  O     -4.45861000     -2.91623000      3.97191000
  C     -4.28645000      1.00684000      2.74651000
  O     -5.45242000      1.26583000      3.40136000
  C     -1.79815000     -4.34786000     -2.30932000
  O     -2.67388000     -4.97681000     -3.02191000
  C     -0.64073400     -5.13946000     -1.44282000
  O     -0.38029300     -6.39072000     -1.22522000
  C     -4.22434000     -1.20221000     -3.13147000
  O     -5.39082000     -1.56834000     -3.67263000
  C     -1.96570000     -5.42501000      1.55471000
  O     -2.32624000     -6.38117000      2.33872000
  C      2.81662000     -1.98532000      3.65313000
  O      3.40950000     -2.58650000      4.63887000
  C      0.63457700      0.30382000      5.26524000
  O      0.75320600      0.66703400      6.55421000
  C      4.90214000     -0.15887500      1.29279000
  O      6.17612000     -0.21147400      1.52241000
  C      3.17801000      4.02307000     -1.58024000
  O      3.88015000      5.04745000     -2.11980000
  C      0.06657370      3.33483000     -3.85923000
  O     -0.11652900      4.21408000     -4.86258000
  C     -1.80541000     -1.43939000     -4.87248000
  O     -2.38680000     -1.74780000     -6.04832000

