#B3LYP/6-31+G(d) OPT FREQ

110, Energy = -12698.21729009 au

0 1
 Ni     -2.30686000      4.10840000     -0.07005880
 Ni      0.91819400      2.17948000     -0.33748600
 Ni     -2.96918000      2.74271000      1.87837000
 Ni      3.10917000     -1.52525000     -2.14041000
 Ni      2.42838000      1.07004000     -2.34463000
 Ni      3.11563000      1.59018000      1.58509000
 Ni      0.31116100      0.84617500      1.77396000
 Ni      2.41417000     -2.91817000      0.02204590
 Ni     -1.14454000      3.17270000     -2.23693000
 Ni     -2.78344000     -0.29907200     -1.43392000
 Ni     -1.53193000      1.54492000      0.10000200
 Ni     -3.46325000      2.25938000     -1.66020000
 Ni     -1.27263000     -1.51554000     -3.40452000
 Ni     -1.58148000     -2.35610000      2.50114000
 Ni     -0.82853100     -0.96986900      0.30479500
 Ni     -2.08278000      1.10905000     -3.51630000
 Ni      1.17964000     -0.78605800     -3.85470000
 Ni      0.22856200      4.69435000     -0.57199500
 Ni     -3.36085000     -1.69059000      0.80061500
 Ni     -0.39388900      3.57712000      1.87407000
 Ni     -1.99569000     -2.88401000     -1.22959000
 Ni     -0.20038200      0.39283200     -1.82081000
 Ni      1.57737000      3.50612000     -2.50460000
 Ni      1.99518000      3.96094000      1.07598000
 Ni     -0.13063000     -3.59188000      0.47436900
 Ni      1.11729000     -1.64376000      2.06601000
 Ni     -4.00968000      1.01435000      0.43337500
 Ni     -1.03418000      2.08764000      3.67484000
 Ni      4.25166000      0.37138600     -0.52442200
 Ni      0.55137800     -2.16835000     -1.67267000
 Ni      3.61257000     -1.00096000      1.72478000
 Ni      2.24456000      0.17506500      3.60630000
 Ni      0.53794200      1.74609000     -3.99363000
 Ni      1.67065000     -0.29510200     -0.13907300
 Ni      1.43341000      2.68527000      3.22073000
 Ni     -0.34451500     -0.48988800      4.00101000
 Ni      3.43126000      2.88719000     -0.75297200
 Ni     -2.24678000      0.14655500      2.30167000
  C     -3.59150000     -1.11883000      3.32278000
  O     -4.47388000     -1.17467000      4.30978000
  C      0.42273200     -4.40515000     -2.25036000
  O      0.65795300     -5.38124000     -3.00536000
  C      3.50850000     -1.18675000      3.55859000
  O      4.32747000     -1.56667000      4.45661000
  C     -2.02534000     -3.27693000     -3.50449000
  O     -2.60836000     -4.05699000     -4.41555000
  C     -4.37720000      0.74878400     -2.16647000
  O     -5.54982000      0.52365200     -2.76735000
  C      1.51386000     -3.58892000      3.32090000
  O      2.05529000     -4.24804000      4.28586000
  C     -4.05381000     -2.47035000     -1.40830000
  O     -5.16416000     -3.05597000     -1.87602000
  C     -2.06155000      0.90089300      4.89688000
  O     -2.63488000      1.22104000      6.07072000
  C      1.55059000     -4.79162000      0.47565000
  O      1.88476000     -6.08079000      0.62415300
  C      3.77217000      3.33273000      1.09205000
  O      4.73062000      4.06069000      1.62113000
  C      3.15028000     -3.47574000     -2.07402000
  O      4.00137000     -4.38192000     -2.58886000
  C      1.21767000      0.02229300      5.32888000
  O      1.44243000      0.04496760      6.65613000
  C      0.04407860      0.43646300     -5.41359000
  O      0.23887200      0.78593100     -6.71036000
  C      0.02233210      3.64176000      3.95684000
  O      0.05486370      4.59771000      4.85943000
  C     -2.84806000      2.82718000     -3.35677000
  O     -3.41936000      3.53215000     -4.29904000
  C     -4.09676000      3.36475000     -0.10580900
  O     -5.17669000      4.09514000     -0.20548500
  C     -3.65726000     -3.42520000      1.56344000
  O     -4.70431000     -4.12795000      1.93771000
  C      3.07096000      1.88595000      3.65284000
  O      3.94209000      2.33209000      4.50387000
  C      4.92680000     -1.25600000     -1.33250000
  O      6.21515000     -1.47595000     -1.75802000
  C      0.65574200     -2.44856000     -4.64885000
  O      0.82476600     -2.93334000     -5.87294000
  C      4.83682000      1.88328000     -1.62807000
  O      6.06100000      2.46726000     -1.93134000
  C     -1.82265000     -4.68204000     -0.60248400
  O     -2.36980000     -5.89928000     -0.76317200
  C     -1.06523000     -2.23937000      4.64844000
  O     -1.37215000     -2.83026000      5.80692000
  C      4.79265000      0.43576800      1.29484000
  O      6.00234000      0.60842300      1.75072000
  C     -2.64192000     -0.44639600     -4.49775000
  O     -3.25782000     -0.64291100     -5.70464000
  C      3.20776000     -0.71996600     -3.94099000
  O      4.12229000     -0.87327600     -4.97557000
  C     -1.07448000     -4.30957000      2.31113000
  O     -1.35887000     -5.46959000      2.91153000
  C     -4.48343000      1.73054000      2.69554000
  O     -5.49438000      2.32035000      3.34801000
  C      0.51573100      5.13189000      1.25851000
  O      0.64651500      6.31369000      1.80099000
  C     -5.21480000     -0.53751000      0.51994300
  O     -6.52163000     -0.60642800      0.84906200
  C      2.43878000      2.36797000     -3.76246000
  O      3.33198000      2.67311000     -4.65451000
  C     -2.07524000      4.44886000      1.84998000
  O     -2.39784000      5.46754000      2.59700000
  C     -1.40312000      4.99877000     -1.46093000
  O     -1.86041000      6.16731000     -1.85690000
  C      4.04862000     -2.86983000      1.11968000
  O      5.06949000     -3.74768000      1.34407000
  C      0.04082600      3.58303000     -3.66538000
  O     -0.11692300      4.53003000     -4.55137000
  C      2.25131000      4.70474000     -1.14942000
  O      2.81250000      5.81677000     -1.53804000

