#B3LYP/6-31+G(d) OPT FREQ

110, Energy = -11833.35147792 au

0 1
 Ni      2.38766000      4.00111000      0.23572800
 Ni      1.83410000      0.54374300     -0.96525400
 Ni      1.64829000      3.34235000      2.61261000
 Ni     -1.15802000     -2.33411000     -2.86353000
 Ni      0.74577000     -0.53786700     -3.06569000
 Ni      2.38846000     -1.80351000     -0.06420090
 Ni      1.04834000     -0.13595900      1.37295000
 Ni     -1.93039000     -3.00043000     -0.46469600
 Ni      1.30388000      2.91714000     -1.88721000
 Ni     -1.89646000      2.80030000     -0.17857800
 Ni      0.52204900      2.22021000      0.48376500
 Ni     -0.02027920      4.58277000     -0.44212900
 Ni     -3.01718000      1.75138000     -2.28921000
 Ni     -2.18084000     -0.21673300      3.11310000
 Ni     -1.35434000      0.46507800      0.73074600
 Ni     -1.12339000      3.50582000     -2.55873000
 Ni     -1.65926000      0.05803900     -3.73510000
 Ni      3.74595000      2.30738000     -1.24326000
 Ni     -2.72316000      2.14010000      2.18351000
 Ni      2.94150000      1.63562000      1.12406000
 Ni     -3.80924000      1.06568000      0.09106720
 Ni     -0.57004700      1.14447000     -1.60745000
 Ni      2.65648000      1.22034000     -3.32901000
 Ni      4.29330000     -0.04893200     -0.33700400
 Ni     -3.26698000     -1.31408000      1.01307000
 Ni     -0.81795200     -1.87760000      1.62941000
 Ni     -0.78525700      3.90688000      1.92045000
 Ni      2.15023000      0.96392900      3.48695000
 Ni      1.27320000     -2.89893000     -2.17104000
 Ni     -2.43497000     -0.60888500     -1.35410000
 Ni      0.52861000     -3.59236000      0.21733300
 Ni      1.60973000     -2.51217000      2.32093000
 Ni      0.21127100      1.82670000     -3.98047000
 Ni     -0.04243770     -1.20932000     -0.71721000
 Ni      3.49512000     -0.72977100      2.04471000
 Ni      0.26256000     -0.81020700      3.76187000
 Ni      3.20574000     -1.12331000     -2.41690000
 Ni     -0.25956600      1.53950000      2.81572000
  C      3.79010000     -2.69730000      2.40923000
  O      4.87192000     -3.20534000      3.02424000
  C     -4.45723000      1.21884000      3.01882000
  O     -5.18072000      1.86097000      3.83081000
  C      4.64619000     -1.99282000     -0.58863900
  O      5.85776000     -2.42384000     -0.73466700
  C     -5.08326000      0.85081000     -2.49170000
  O     -6.08490000      1.42930000     -3.04635000
  C     -3.64588000      3.96480000     -2.35785000
  O     -3.76603000      5.06110000     -2.98710000
  C      1.19140000     -4.36150000      3.01493000
  O      1.59709000     -5.29914000      3.78911000
  C      3.21530000     -3.23592000     -2.81899000
  O      4.00936000     -3.98987000     -3.62318000
  C     -3.90300000     -3.69001000      0.85309600
  O     -4.81224000     -4.55532000      0.98629600
  C     -4.25681000      3.39172000      0.35676600
  O     -5.38200000      4.05617000      0.42186200
  C     -4.43501000     -1.87988000     -2.09917000
  O     -5.59138000     -2.30255000     -2.47471000
  C      0.64611600     -4.90931000     -1.87604000
  O      0.73481700     -6.03312000     -2.52338000
  C      0.38325500      3.95182000     -3.85453000
  O      0.35975700      4.55233000     -4.98876000
  C     -3.85678000     -1.51022000      3.45874000
  O     -4.91944000     -1.86883000      4.10718000
  C      4.40035000      3.53720000      0.16025300
  O      5.01637000      4.65409000     -0.03169110
  C     -2.32936000      4.93506000      0.53142100
  O     -2.41587000      6.26302000      0.76456800
  C      5.08808000      1.00837000     -1.86641000
  O      6.30460000      1.30884000     -2.17305000
  C      0.79048000      1.97766000      4.70484000
  O      0.97950600      2.49691000      5.94415000
  C     -1.69457000     -3.26452000      3.58055000
  O     -2.11772000     -4.19184000      4.36768000
  C     -5.23082000     -0.29639300      0.44829300
  O     -6.51444000     -0.26164300      0.70688400
  C     -2.26082000     -4.07008000     -2.08535000
  O     -2.89449000     -5.09980000     -2.70633000
  C      3.58294000     -0.34129200      4.16173000
  O      4.19783000     -0.34021400      5.37171000
  C     -1.09063000     -5.05925000      0.83156200
  O     -1.16889000     -6.32803000      0.97967100
  C      0.55976000      0.22310700     -5.12420000
  O      0.77755700      0.36086800     -6.38719000
  C      3.66498000      2.72665000      2.71209000
  O      4.33702000      3.42674000      3.55199000
  C      0.91265500      5.22984000      1.51283000
  O      1.28847000      6.17880000      2.29906000
  C      2.94143000      3.22534000     -3.13501000
  O      3.63187000      3.82242000     -4.04223000
  C     -1.39557000      0.32092800      5.29920000
  O     -2.09186000      0.36084700      6.34990000
  C      1.70897000      5.08315000     -1.65067000
  O      1.52440000      6.34516000     -1.83835000
  C      0.95190000     -2.07612000      5.25502000
  O      1.02726000     -2.30773000      6.50991000
  C      3.46024000     -0.40603000     -4.24683000
  O      4.33728000     -0.45559300     -5.30688000
  C      2.47554000     -4.50511000      0.17363000
  O      3.23225000     -5.55526000      0.20870300
  C     -1.64951000      3.31273000      3.87548000
  O     -1.98975000      4.39975000      4.58915000
  C     -2.39327000      1.93353000     -4.59141000
  O     -2.97413000      2.19166000     -5.76468000
  C      0.39672500     -2.50844000     -4.28130000
  O      0.51271300     -3.17063000     -5.43339000
  C     -2.41140000     -1.62520000     -4.48997000
  O     -3.11219000     -2.06608000     -5.57514000
  C      4.95775000      0.47681600      1.48768000
  O      6.16953000      0.72324200      1.84770000

