#B3LYP/6-31+G(d) OPT FREQ

110, Energy = -12588.62722956 au

0 1
 Ni      0.22426300     -3.25915000     -2.18885000
 Ni     -1.38821000      0.02963020     -1.17765000
 Ni      0.52864700     -3.98690000      0.23146700
 Ni     -0.60350800      4.43396000     -0.32264700
 Ni     -1.32244000      2.79459000     -2.24311000
 Ni     -3.44399000      0.77390300      0.59073500
 Ni     -1.04854000     -0.59896700      1.30330000
 Ni     -0.30995700      3.86873000      2.26806000
 Ni      0.36458100     -0.67681500     -3.13159000
 Ni      3.07022000     -0.09401100     -0.51513400
 Ni      0.72544400     -1.31554000     -0.47920100
 Ni      2.51240000     -2.06927000     -2.28584000
 Ni      3.29310000      2.39602000     -1.29434000
 Ni      1.70020000      0.00813272      3.82117000
 Ni      1.27309000      0.57334900      1.25277000
 Ni      2.67537000      0.54822300     -3.08169000
 Ni      1.21221000      3.72437000     -1.95652000
 Ni     -1.98706000     -1.89586000     -2.88791000
 Ni      3.49228000     -0.68137300      1.99030000
 Ni     -1.61277000     -2.49321000     -0.41102500
 Ni      3.61173000      1.81218000      1.31210000
 Ni      0.90432300      1.18645000     -1.22951000
 Ni     -1.76103000      0.59145400     -3.78132000
 Ni     -3.70211000     -1.22423000     -1.21178000
 Ni      1.86256000      2.44901000      3.03128000
 Ni     -0.50730400      1.29667000      3.27653000
 Ni      2.92845000     -2.71069000      0.24913900
 Ni     -1.28305000     -3.12987000      2.09523000
 Ni     -2.91368000      3.28267000     -0.08294930
 Ni      1.69277000      3.27474000      0.52662200
 Ni     -2.71100000      2.70560000      2.34253000
 Ni     -2.76717000     -0.04081790      3.11537000
 Ni      0.44865300      1.82546000     -3.82919000
 Ni     -0.84039000      1.89800000      0.55451400
 Ni     -3.44477000     -1.82006000      1.46528000
 Ni     -0.78036700     -1.24087000      3.91122000
 Ni     -3.60732000      1.35004000     -1.89526000
 Ni      1.08790000     -1.92769000      2.01376000
  C      5.12561000     -0.83422200      0.98053300
  O      6.38572000     -1.13605000      1.28149000
  C     -4.90484000     -0.11147700     -0.23292000
  O     -6.14893000     -0.09447130     -0.15203400
  C     -0.41043100      4.55008000     -2.34066000
  O     -0.53597000      5.53527000     -3.17570000
  C      1.04860000      1.67718000      4.52834000
  O      1.13615000      2.08906000      5.75729000
  C      3.47700000      0.75465500      3.38447000
  O      4.37703000      0.89392800      4.31054000
  C      3.09247000     -2.28842000      3.21959000
  O      3.72959000     -3.04723000      4.11815000
  C      0.45669500     -4.13722000      2.73390000
  O      0.74400700     -5.14757000      3.57220000
  C     -1.64649000      0.29003200      4.63018000
  O     -1.99393000      0.54272400      5.85335000
  C     -3.97354000     -3.08975000     -1.87243000
  O     -5.07829000     -3.71905000     -2.22820000
  C     -2.75095000     -1.15072000     -4.53634000
  O     -3.53250000     -1.56857000     -5.56351000
  C     -2.16408000     -2.50298000      3.64943000
  O     -2.64721000     -3.23177000      4.59808000
  C      2.26880000     -4.19161000     -2.30340000
  O      2.87762000     -5.10458000     -3.06147000
  C     -2.05309000     -4.53736000      0.92628400
  O     -2.65780000     -5.70979000      1.08424000
  C     -0.09168390      0.22009000     -4.79905000
  O      0.02683000     -0.06585100     -6.05725000
  C     -4.44315000      0.47337200     -3.45706000
  O     -5.55002000      0.80374400     -4.07357000
  C     -4.69343000      0.11114800      2.74041000
  O     -5.68745000      0.21976000      3.62182000
  C     -3.15179000      3.33746000     -1.94201000
  O     -3.75011000      4.33012000     -2.53248000
  C      2.27604000      2.79947000     -4.16714000
  O      2.62650000      3.29122000     -5.35960000
  C     -2.63207000      3.31022000      4.35352000
  O     -3.50314000      4.08609000      4.91161000
  C      0.40933700      4.34651000      4.20721000
  O      0.35609100      5.53052000      4.72190000
  C      2.94864000      4.17523000     -1.58647000
  O      3.74390000      5.09443000     -1.91631000
  C      2.67771000     -1.27927000     -4.34030000
  O      3.37300000     -1.55669000     -5.45229000
  C     -2.08065000      4.65918000      0.94819300
  O     -2.60694000      5.84304000      1.06906000
  C      3.08395000      3.47990000      2.06653000
  O      3.76419000      4.46055000      2.57448000
  C      4.58902000      1.12751000     -2.67767000
  O      5.65981000      1.44277000     -3.42111000
  C      0.98644100     -1.51946000      5.04476000
  O      1.18721000     -1.85317000      6.33236000
  C      3.61933000     -4.51887000      1.25620000
  O      4.59038000     -5.32397000      1.05597000
  C     -4.29093000      2.50513000      0.92735700
  O     -5.50270000      2.95521000      0.98073400
  C      4.43595000     -1.76049000     -1.60565000
  O      5.67970000     -2.06153000     -2.00769000
  C      5.14352000      2.04616000     -0.11383000
  O      6.34326000      2.57776000      0.12042300
  C      0.91085300     -5.84119000     -0.84632500
  O      1.02075000     -7.07108000     -0.51537900
  C      0.04909540     -2.88055000     -4.06405000
  O      0.13986800     -3.62369000     -5.22893000
  C     -1.50954000      2.40571000     -4.21393000
  O     -2.02292000      3.01567000     -5.22872000
  C     -5.00661000     -3.15242000      1.44949000
  O     -5.89868000     -3.68581000      1.94317000
  C     -1.59893000     -4.28247000     -2.16022000
  O     -2.09219000     -5.43998000     -2.60179000
  C      1.04645000      5.01522000      0.31844900
  O      1.57066000      6.18729000      0.46898500

