110
Energy = -11910.49921005 au
 Ni      1.18014000     -3.00400000     -1.90975000
 Ni     -0.44640300      0.45354000     -1.52555000
 Ni     -0.39888400     -4.06623000      0.21800800
 Ni     -0.33980300      4.54888000      0.50041800
 Ni      0.42630600      2.97597000     -1.44837000
 Ni     -2.88652000      1.43363000     -1.47009000
 Ni     -1.98615000     -0.41976700      0.34965100
 Ni     -1.87825000      3.60657000      2.41602000
 Ni      1.98947000     -0.43306400     -1.72500000
 Ni      2.28798000     -0.64670500      1.94310000
 Ni      0.43473300     -1.32514000      0.15956800
 Ni      3.00473000     -2.27959000      0.02805580
 Ni      3.17946000      1.77983000      2.15730000
 Ni     -1.61481000     -0.51823100      4.07395000
 Ni     -0.23635500      0.26231400      2.12022000
 Ni      4.03696000      0.33746300      0.09383110
 Ni      2.13986000      3.73401000      0.22639800
 Ni      0.29761800     -1.21184000     -3.71390000
 Ni      0.72465300     -1.41139000      3.95274000
 Ni     -1.35612000     -2.04355000     -1.64547000
 Ni      1.43948000      0.97049800      4.12156000
 Ni      1.30803000      1.14015000      0.24481400
 Ni      1.13696000      1.40541000     -3.60469000
 Ni     -2.30302000     -0.32347500     -3.34842000
 Ni     -0.85503500      1.86665000      4.17352000
 Ni     -2.78859000      1.26476000      2.34569000
 Ni      1.40217000     -3.29279000      1.87085000
 Ni     -2.80302000     -3.03442000      0.29926300
 Ni     -2.08042000      3.85410000     -1.30084000
 Ni      0.56513700      2.78961000      2.35411000
 Ni     -3.45050000      2.98562000      0.73268000
 Ni     -4.40485000      0.43559000      0.49483100
 Ni      3.04576000      2.08400000     -1.66130000
 Ni     -1.12085000      2.04849000      0.43012500
 Ni     -3.74128000     -1.24744000     -1.56577000
 Ni     -3.55322000     -1.40697000      2.30067000
 Ni     -1.41093000      2.38146000     -3.30163000
 Ni     -1.13038000     -2.33503000      2.03555000
  C      2.71110000     -0.73252100      4.58175000
  O      3.42298000     -0.98949800      5.69819000
  C     -2.26108000     -4.90539000     -0.60329900
  O     -2.77668000     -6.10632000     -0.75238000
  C      3.61229000     -4.19461000     -1.20410000
  O      4.61830000     -4.96447000     -1.41054000
  C      3.72045000      3.67059000      1.56069000
  O      4.65369000      4.53603000      1.96594000
  C      2.46566000      2.84542000      4.20777000
  O      2.99374000      3.46695000      5.25044000
  C     -0.90459500     -2.43325000      4.83037000
  O     -1.05036000     -2.95302000      6.06195000
  C      5.00567000      1.98229000     -0.95737800
  O      6.21293000      2.48732000     -1.19806000
  C     -2.88948000      0.51842700     -5.36311000
  O     -3.53542000      0.36152600     -6.45588000
  C     -3.67246000      2.98173000      2.64264000
  O     -4.58727000      3.38374000      3.50009000
  C     -3.26124000      0.41757500      4.55986000
  O     -4.13746000      0.53981400      5.56234000
  C      1.26847000      5.21408000      1.91949000
  O      1.22797000      6.50240000      2.15910000
  C     -0.73512200     -3.03250000     -4.77750000
  O     -0.82733400     -3.36728000     -6.01877000
  C     -2.97615000      3.23862000     -2.71461000
  O     -3.87769000      3.79875000     -3.44994000
  C      4.71041000      0.41607700      2.28450000
  O      5.90705000      0.52237900      2.92020000
  C      1.57713000     -3.70333000      3.82093000
  O      2.00606000     -4.68556000      4.56652000
  C      5.58332000     -1.44698000     -0.41742100
  O      6.85067000     -1.52371000     -0.62545200
  C     -5.07541000      2.63957000     -0.58002400
  O     -6.14829000      3.39580000     -0.67723500
  C     -0.02750130      0.72447700      5.14677000
  O      0.02840600      0.82295600      6.44299000
  C      1.39810000     -0.20450200     -5.37754000
  O      1.54894000     -0.26964000     -6.63209000
  C     -1.22241000     -4.47572000      2.11161000
  O     -1.62130000     -5.55056000      2.86223000
  C      1.79994000      5.02900000     -1.82103000
  O      2.84191000      5.90866000     -1.84637000
  C     -4.77654000      0.07166250     -2.45402000
  O     -5.99236000      0.15285000     -2.92918000
  C      0.05208930     -5.16725000     -2.31042000
  O      0.17914900     -6.19259000     -3.08148000
  C      1.41917000     -5.09590000      0.65858400
  O      1.71704000     -6.38410000      0.77528600
  C     -0.98823600      3.69636000      3.98126000
  O     -0.99185800      4.61592000      4.88795000
  C     -4.77064000     -2.63893000     -0.22871700
  O     -5.91344000     -3.36437000     -0.26938900
  C     -0.10147400      3.19517000     -4.85861000
  O     -0.25365800      3.74971000     -6.04007000
  C     -2.17103000      4.83263000      0.39015500
  O     -2.71900000      6.02004000      0.42847700
  C      2.53235000      3.40376000     -3.79171000
  O      3.22330000      3.85413000     -4.76483000
  C     -3.64091000     -3.00629000      3.17377000
  O     -4.61478000     -3.59054000      3.78071000
  C     -5.61095000     -0.43302500      1.91261000
  O     -6.84239000     -0.25199400      2.25314000
  C      4.20934000     -0.18877800     -3.35038000
  O      5.14841000     -0.27172600     -4.22828000
  C      0.08251820      4.85346000     -2.52517000
  O     -0.39510300      6.05027000     -2.84023000
  C     -3.34450000     -2.81005000     -2.88723000
  O     -4.00372000     -3.56656000     -3.75525000
  C      2.27380000     -2.59907000     -3.92097000
  O      2.90852000     -3.33200000     -4.76713000
  C      3.77970000     -2.68642000      1.83134000
  O      4.88033000     -3.29031000      2.35159000
