#B3LYP/6-31+G(d) OPT FREQ

110, Energy = -12626.48211342 au

0 1
 Ni      2.08960000     -2.12520000     -2.57869000
 Ni     -1.07409000     -1.44503000     -0.58307700
 Ni      3.56587000     -1.59547000     -0.36027100
 Ni     -4.11021000      1.72370000      0.69646700
 Ni     -3.38896000     -0.17300400     -1.03953000
 Ni     -2.02792000     -2.16560000      1.83395000
 Ni      0.33393700     -0.88233900      1.51567000
 Ni     -2.67396000      2.22385000      2.80512000
 Ni     -0.30839900     -0.80644200     -3.07095000
 Ni      1.29662000      2.40347000     -1.49225000
 Ni      1.22236000     -0.23178400     -0.84068500
 Ni      2.06205000      0.48834200     -3.21667000
 Ni     -1.00116000      3.58910000     -2.00355000
 Ni      1.88842000      2.16191000      2.99335000
 Ni      0.36537000      1.58799000      0.82709000
 Ni     -0.19875600      1.75445000     -3.64877000
 Ni     -3.31573000      2.33071000     -1.75056000
 Ni     -0.32408300     -3.31556000     -2.27966000
 Ni      2.69734000      2.98069000      0.47563300
 Ni      1.23535000     -2.76895000     -0.13482100
 Ni      0.40799100      4.08644000      0.15666200
 Ni     -1.03220000      1.04033000     -1.27689000
 Ni     -2.51409000     -2.05032000     -2.79407000
 Ni     -1.14795000     -3.96363000     -0.00660180
 Ni     -0.45114200      3.41437000      2.60874000
 Ni     -0.54893000      1.06365000      3.53686000
 Ni      3.61884000      0.96306100     -1.04335000
 Ni      2.66735000     -2.17814000      1.95319000
 Ni     -4.10591000     -0.91793900      1.40621000
 Ni     -1.94178000      2.98321000      0.33880600
 Ni     -2.75149000     -0.37176800      3.50909000
 Ni     -0.50173400     -1.60000000      3.95203000
 Ni     -2.49255000      0.54095200     -3.43538000
 Ni     -1.89680000      0.38658700      1.06852000
 Ni      0.29443600     -3.45154000      2.23204000
 Ni      1.75877000     -0.21439900      3.67959000
 Ni     -3.32475000     -2.74355000     -0.46738400
 Ni      2.75005000      0.36093500      1.38145000
  C     -1.76255000      2.21670000     -4.84929000
  O     -1.97314000      2.66484000     -6.08609000
  C      2.14191000      4.49381000     -0.41449700
  O      2.65710000      5.65306000     -0.64889300
  C      3.51019000     -2.87043000     -3.52612000
  O      4.10847000     -3.53669000     -4.37711000
  C     -1.16447000      5.16959000      0.48265900
  O     -1.47840000      6.47658000      0.46111300
  C      0.22241100      4.61241000     -2.94400000
  O      0.11074200      5.75213000     -3.57554000
  C      4.02209000      0.29841200     -3.21061000
  O      4.98500000      0.41360300     -4.12858000
  C     -5.16644000      1.40529000     -1.34334000
  O     -6.31094000      1.76112000     -0.84694800
  C      0.96182400      1.61760000      4.50883000
  O      1.09165000      2.09879000      5.70539000
  C     -5.29590000     -1.67673000     -0.32693000
  O     -6.45025000     -1.80986000      0.24581200
  C     -2.21863000     -3.93527000     -2.09570000
  O     -2.70159000     -4.97916000     -2.69775000
  C     -1.50994000      2.81136000      4.08507000
  O     -1.95672000      3.36264000      5.17807000
  C     -0.15291200     -5.33969000      1.20159000
  O     -0.38510200     -6.63688000      1.40287000
  C     -3.41275000      3.41265000      1.47698000
  O     -4.09656000      4.48747000      1.72737000
  C      2.08358000     -4.08437000      2.63325000
  O      2.58614000     -5.13496000      3.32881000
  C     -4.58973000      1.29398000     -2.88138000
  O     -5.21385000      1.47825000     -3.99799000
  C      1.07758000      4.70227000      2.86261000
  O      1.07750000      5.74242000      3.66208000
  C      1.97093000      2.63150000     -3.72853000
  O      2.55812000      3.46736000     -4.61404000
  C     -1.07474000     -3.57045000      3.82194000
  O     -1.35400000     -4.54359000      4.75072000
  C      5.26041000     -1.16738000     -1.06355000
  O      6.44665000     -1.64869000     -1.29141000
  C      3.31369000      3.34058000      2.30108000
  O      4.18502000      4.24467000      2.79575000
  C      3.28786000      0.70566700      3.57201000
  O      4.29110000      0.79617700      4.36587000
  C     -2.13129000     -1.06496000     -4.35918000
  O     -2.44390000     -1.29037000     -5.59490000
  C     -4.24607000      0.83741300      2.77983000
  O     -5.26293000      1.06031000      3.55509000
  C     -4.75192000     -1.88133000     -1.88434000
  O     -5.50224000     -2.27826000     -2.85752000
  C     -3.05740000     -4.33200000      1.03659000
  O     -4.06382000     -5.24897000      1.04947000
  C      1.33432000     -1.96683000      4.85630000
  O      1.70704000     -2.34814000      6.09429000
  C      0.21156200     -2.86433000     -4.24442000
  O      0.15581400     -3.54163000     -5.39352000
  C     -1.47301000     -0.23092600      4.83815000
  O     -1.71803000     -0.20760800      6.11264000
  C     -3.56336000     -1.97649000      3.13023000
  O     -4.27947000     -2.70143000      3.92710000
  C      4.49417000     -1.95665000      2.27673000
  O      5.49571000     -2.48823000      2.90433000
  C      4.19632000      2.87064000     -1.25825000
  O      5.27480000      3.51924000     -1.69521000
  C      4.87848000      0.84705900      0.71565300
  O      6.10021000      1.12116000      1.12176000
  C      1.09166000     -0.04654220     -4.95110000
  O      1.36092000     -0.19168200     -6.25176000
  C     -2.89661000      4.12200000     -1.89343000
  O     -3.71753000      5.09745000     -2.42703000
  C      3.31477000     -3.80764000     -0.21295400
  O      3.99493000     -4.92130000     -0.24407500
  C      0.92566400     -4.68949000     -1.73299000
  O      1.24232000     -5.92427000     -2.12083000

