#B3LYP/6-31+G(d) OPT FREQ

110, Energy = -12715.25928798 au

0 1
 Ni     -2.45225000     -0.18040800     -3.17591000
 Ni      0.92925500      0.40852400     -1.45036000
 Ni     -3.76232000      0.68891700     -1.07005000
 Ni      4.20536000     -1.60549000      1.12860000
 Ni      3.44601000     -0.84323800     -1.41851000
 Ni      2.10821000      2.56302000      0.07962780
 Ni     -0.31402700      1.11276000      0.71457800
 Ni      3.05543000     -0.80111200      3.12776000
 Ni     -0.08912950     -1.56664000     -3.29498000
 Ni     -1.41137000     -3.61114000     -0.04426580
 Ni     -1.31857000     -0.76683900     -0.82263600
 Ni     -2.31471000     -2.74880000     -2.44869000
 Ni      1.01656000     -4.53029000      0.14703300
 Ni     -1.51522000     -0.67851100      3.72395000
 Ni     -0.32624200     -1.35685000      1.49480000
 Ni      0.13361600     -3.91586000     -2.16054000
 Ni      3.10839000     -3.45463000     -0.45351300
 Ni      0.04093050      1.07023000     -3.98403000
 Ni     -2.55316000     -2.63190000      2.20860000
 Ni     -1.35360000      1.80862000     -1.67197000
 Ni     -0.35997700     -3.74649000      2.40443000
 Ni      0.93679500     -2.05815000     -0.64098400
 Ni      2.30907000     -0.18896400     -3.63729000
 Ni      0.99421000      3.01111000     -2.36406000
 Ni      0.56660000     -2.00898000      3.83647000
 Ni      0.89867800      0.54802300      3.12958000
 Ni     -3.64259000     -1.94627000     -0.09339460
 Ni     -2.68267000      2.57545000      0.52014700
 Ni      4.23548000      0.90236400      0.22518200
 Ni      2.00309000     -3.03180000      1.97707000
 Ni      3.13471000      1.70248000      2.42355000
 Ni      0.70630700      3.08464000      2.19031000
 Ni      2.14549000     -2.62779000     -2.86964000
 Ni      1.94799000     -0.22408400      0.86461900
 Ni     -0.23315200      3.77425000     -0.06885940
 Ni     -1.60374000      1.86059000      2.93457000
 Ni      3.21159000      1.69139000     -2.11337000
 Ni     -2.71549000     -0.03051790      1.39002000
  C     -4.46136000      0.47671100      1.88788000
  O     -5.58659000      0.45880500      2.48442000
  C      4.85742000      0.06559160      1.77077000
  O      6.10037000      0.21188000      2.14645000
  C      2.90876000      3.49974000     -2.03337000
  O      3.66024000      4.45434000     -2.46875000
  C     -2.72224000      0.62695600      4.39894000
  O     -3.37697000      0.83502000      5.56583000
  C     -0.08009890      4.60537000     -2.36362000
  O      0.06365570      5.74147000     -2.99771000
  C     -4.06805000      0.68386800     -2.89759000
  O     -5.10117000      0.91157300     -3.62949000
  C     -0.86788500     -3.30211000     -3.63347000
  O     -0.81595100     -3.83812000     -4.82798000
  C      1.09923000     -1.14616000     -4.68538000
  O      1.15772000     -1.56775000     -5.90797000
  C     -0.20352800      2.13318000      4.46370000
  O     -0.14664300      2.55039000      5.75295000
  C     -1.67827000     -4.78884000      1.59626000
  O     -1.97852000     -6.10022000      1.92556000
  C     -1.63083000     -0.11696700     -4.93015000
  O     -2.14486000     -0.17798300     -6.19900000
  C     -3.83424000     -2.12357000     -3.38382000
  O     -4.64260000     -2.73582000     -4.29972000
  C     -5.14803000     -0.88627300     -0.56477400
  O     -6.47774000     -1.12546000     -0.83487700
  C     -2.58743000      2.99999000     -2.97979000
  O     -2.98451000      3.93946000     -3.68796000
  C      4.73591000      0.68697200     -1.55541000
  O      5.94008000      0.74173200     -2.04190000
  C     -0.47360600     -5.11623000     -0.85122400
  O     -0.85236000     -6.33485000     -1.12544000
  C      0.04096190      2.78319000     -4.83171000
  O      0.06713770      3.20743000     -6.05823000
  C      0.54073400     -0.62987500      5.25255000
  O      1.01799000     -0.72980800      6.51005000
  C      3.95327000      2.62272000      0.93589300
  O      4.80419000      3.61507000      0.91135200
  C     -2.04097000      4.47762000     -0.14077700
  O     -2.55345000      5.73896000     -0.23855800
  C     -3.13059000     -3.59849000     -0.88774700
  O     -3.84929000     -4.68927000     -0.80218300
  C     -4.45084000     -2.57537000      2.04135000
  O     -5.42400000     -3.29423000      2.60680000
  C      3.18456000      0.77115600      4.00357000
  O      3.75034000      1.08070000      5.09919000
  C      5.17817000     -2.35589000     -0.51406100
  O      6.14742000     -3.32201000     -0.60462300
  C      3.59676000     -1.48525000     -3.18191000
  O      4.71924000     -1.72144000     -3.81080000
  C     -1.66819000     -2.57329000      3.92294000
  O     -2.22600000     -3.05988000      4.99913000
  C      1.14523000     -3.78700000      3.56045000
  O      1.60823000     -4.68702000      4.39486000
  C      2.93428000     -4.39241000      1.13524000
  O      3.16757000     -5.61150000      1.42748000
  C      2.80966000      1.67145000     -4.18419000
  O      3.61993000      2.07110000     -5.22951000
  C      1.33215000      4.64509000      0.39148600
  O      1.80359000      5.86061000      0.40713200
  C      2.08273000     -4.37086000     -2.07411000
  O      2.53512000     -5.44776000     -2.65284000
  C     -3.16809000      3.02065000      2.52421000
  O     -4.02858000      3.84147000      3.16883000
  C      2.53068000      3.44199000      3.16101000
  O      3.07987000      4.33546000      4.05400000
  C     -0.68026200      4.39136000      2.49669000
  O     -0.79145700      5.48909000      3.14739000
  C     -4.37197000      2.40289000     -0.36697600
  O     -5.50764000      3.17162000     -0.39745400
  C      3.71494000     -2.65384000      2.59709000
  O      4.34180000     -3.31851000      3.51221000

