110
Energy = -12050.51459765 au
 Ni      0.43428400     -3.77539000     -1.56254000
 Ni     -1.62011000     -0.70311200     -0.62190100
 Ni      1.13751000     -4.07140000      1.00288000
 Ni     -1.60722000      3.84488000     -0.23592800
 Ni     -1.98438000      1.65277000     -1.68180000
 Ni     -3.34154000     -0.05750970      1.41737000
 Ni     -0.82613300     -0.93363500      1.82374000
 Ni     -0.82874300      3.54685000      2.35423000
 Ni     -0.00768227     -1.34851000     -2.61844000
 Ni      2.88433000     -0.03000750     -0.65735500
 Ni      0.78153500     -1.56703000     -0.10913600
 Ni      2.48556000     -2.20002000     -2.20301000
 Ni      2.53210000      2.47357000     -1.72235000
 Ni      2.00893000      0.37960400      3.76756000
 Ni      1.19006000      0.56796100      1.30874000
 Ni      2.15293000      0.20638900     -3.20789000
 Ni      0.10800400      3.31832000     -2.19659000
 Ni     -2.05170000     -2.87437000     -2.12270000
 Ni      3.72626000     -0.20077300      1.85058000
 Ni     -1.21188000     -3.12206000      0.41233000
 Ni      3.38099000      2.12525000      0.81538300
 Ni      0.41665600      0.80486700     -1.14137000
 Ni     -2.44199000     -0.50552000     -3.22049000
 Ni     -3.65409000     -2.23790000     -0.13856600
 Ni      1.61764000      2.67424000      2.79356000
 Ni     -0.42292300      1.31017000      3.35759000
 Ni      3.24579000     -2.47871000      0.45751400
 Ni     -0.40010200     -3.36260000      2.93508000
 Ni     -3.63590000      2.22924000      0.28793000
 Ni      0.81031400      2.94409000      0.25496300
 Ni     -2.86673000      2.01621000      2.82837000
 Ni     -2.42261000     -0.35336900      3.77172000
 Ni     -0.35595100      1.05892000     -3.63244000
 Ni     -1.20611000      1.42536000      0.80108200
 Ni     -2.85365000     -2.39039000      2.33078000
 Ni     -0.03463930     -1.22322000      4.32780000
 Ni     -4.14496000      0.12332000     -1.17857000
 Ni      1.63128000     -1.88236000      2.38643000
  C      4.29187000      3.28816000     -1.20871000
  O      5.33136000      3.93738000     -1.70049000
  C      2.60264000     -1.06454000     -4.60370000
  O      3.31230000     -1.24016000     -5.69020000
  C     -1.92734000      3.52109000      4.43578000
  O     -2.79528000      4.14704000      5.18950000
  C      1.11562000     -3.75717000      4.54061000
  O      1.16039000     -3.97549000      5.80086000
  C      2.19115000     -5.47925000     -1.80508000
  O      2.45019000     -6.64142000     -1.30248000
  C      2.65847000      4.13850000      1.15683000
  O      3.28433000      5.33101000      1.33856000
  C     -0.78479400      3.25658000     -4.08172000
  O     -0.96503900      4.04051000     -5.13312000
  C      0.36274300      3.19797000      4.07768000
  O      0.56131500      3.91874000      5.14133000
  C     -5.57156000      0.91189100      0.69085200
  O     -6.64886000      1.58856000      1.01196000
  C      3.95388000     -3.50435000     -2.10951000
  O      4.73279000     -4.18929000     -2.88064000
  C      2.39554000      2.31507000     -3.94135000
  O      2.96525000      2.87419000     -4.99826000
  C     -1.62639000      4.96152000     -1.89868000
  O     -1.88947000      6.23842000     -2.11058000
  C     -0.25438600      5.20720000      1.27016000
  O     -0.25905300      6.44042000      1.78117000
  C      0.02539750     -0.05271780     -5.13289000
  O     -0.04655690      0.01260890     -6.43367000
  C      3.97716000      2.05408000      3.09228000
  O      4.79070000      2.68290000      3.94736000
  C      3.96379000     -1.22040000      3.57047000
  O      5.00052000     -1.52553000      4.34048000
  C      4.32444000      0.01355410     -2.24698000
  O      5.58178000      0.02955550     -2.64483000
  C     -3.46462000      1.28172000     -4.53569000
  O     -4.06919000      1.34102000     -5.67721000
  C      5.14335000     -1.87252000      0.68794800
  O      6.27122000     -2.53764000      0.62998200
  C     -5.16350000     -1.52696000      1.10921000
  O     -6.30002000     -2.11767000      1.50460000
  C      0.94359300      0.58699400      5.61061000
  O      1.81489000      0.76460100      6.61474000
  C     -3.69833000      3.00532000     -1.87967000
  O     -4.61202000      3.60650000     -2.63146000
  C      5.48520000      1.06957000      0.64760800
  O      6.68383000      1.33500000      1.02348000
  C      0.99488200     -3.07906000     -4.25718000
  O      1.07576000     -4.12613000     -5.00173000
  C     -5.42726000     -0.43552800     -3.04734000
  O     -6.71668000     -0.37910200     -3.04485000
  C     -1.88303000     -2.09629000     -4.52274000
  O     -2.44902000     -2.77224000     -5.49447000
  C     -4.10816000      0.25922900      3.30517000
  O     -5.18558000      0.13660700      4.05621000
  C     -0.15481300     -5.84777000      1.51876000
  O     -0.17307800     -6.73590000      2.44936000
  C     -2.87028000     -4.29440000      0.71362200
  O     -3.45845000     -5.41548000      1.05637000
  C      2.71097000     -3.66097000      1.92751000
  O      3.42033000     -4.52561000      2.59010000
  C     -2.18912000     -2.61377000      4.47748000
  O     -2.95913000     -3.50074000      5.19918000
  C     -1.28654000     -4.72593000     -1.55235000
  O     -1.56071000     -6.03667000     -1.98419000
  C     -3.34064000      4.11751000      1.59102000
  O     -4.18759000      5.15821000      1.63122000
  C     -0.61711900      0.35593700      5.32509000
  O     -1.43178000      0.40038200      6.34830000
  C     -4.23285000     -3.14752000     -1.99880000
  O     -5.13352000     -3.98354000     -2.48718000
  C      1.53775000      4.80046000     -1.69554000
  O      1.90266000      5.92588000     -2.26346000
