110
Energy = -12694.65257498 au
 Ni     -2.38106000     -2.54257000     -3.08500000
 Ni     -1.20645000      0.86424400     -1.93709000
 Ni     -3.18527000     -3.12211000     -0.83444700
 Ni      2.40425000      3.22772000     -0.28854700
 Ni      1.01960000      2.66937000     -2.40900000
 Ni     -2.49013000      3.03955000     -0.22821200
 Ni     -2.01147000      0.27004700      0.40598200
 Ni      1.64107000      2.61138000      2.25533000
 Ni     -0.19742600     -1.12251000     -3.72216000
 Ni      1.41896000     -2.68554000     -0.56043400
 Ni     -1.02999000     -1.59642000     -1.11413000
 Ni     -0.01365930     -3.44572000     -2.66892000
 Ni      3.56886000     -1.18651000     -0.84143200
 Ni     -0.48413900     -1.45859000      3.47600000
 Ni      0.35021600     -0.77094100      1.00063000
 Ni      2.14603000     -1.97103000     -3.05109000
 Ni      3.34890000      1.35709000     -1.89362000
 Ni     -2.40535000     -0.02913090     -3.99364000
 Ni      0.59797500     -3.41188000      1.81507000
 Ni     -3.77195000     -0.61763900     -1.84494000
 Ni      2.81432000     -1.79772000      1.60551000
 Ni      1.13446000     -0.13308800     -1.47902000
 Ni     -0.36790700      1.58691000     -4.35061000
 Ni     -3.59515000      1.81617000     -2.47231000
 Ni      1.75847000      0.24111300      3.26592000
 Ni     -0.59944300      1.16473000      2.71061000
 Ni     -0.87895400     -4.07449000     -0.20636100
 Ni     -4.11568000     -1.34684000      0.67013900
 Ni     -0.05211190      4.36398000     -0.85682700
 Ni      2.58999000      0.73508800      0.68135500
 Ni     -0.77094300      3.70226000      1.65561000
 Ni     -2.97364000      2.19072000      2.08022000
 Ni      1.93435000      0.48009000     -4.00190000
 Ni      0.15050300      1.75911000      0.08876050
 Ni     -4.43960000      1.26931000      0.06354920
 Ni     -2.83078000     -0.32432000      2.76380000
 Ni     -1.56624000      3.28255000     -2.75320000
 Ni     -1.87220000     -2.37659000      1.43807000
  C     -2.15945000     -4.23500000     -1.95705000
  O     -2.68628000     -5.34703000     -2.38400000
  C      2.19213000     -4.37250000      0.58376800
  O      2.96116000     -5.45000000      0.49288400
  C     -0.15935200      4.53880000     -2.70661000
  O     -0.09679560      5.62354000     -3.41221000
  C      1.41582000      2.32138000     -4.24827000
  O      1.89313000      3.16346000     -5.11560000
  C      2.03876000     -3.21617000      3.17492000
  O      2.58275000     -4.10376000      4.02435000
  C     -4.35676000      2.87158000      1.00385000
  O     -5.36175000      3.59260000      1.38486000
  C     -0.62277100     -5.55691000      0.94945000
  O     -0.65274300     -6.85898000      0.93767100
  C      4.57253000     -2.39018000      1.15468000
  O      5.64701000     -2.89825000      1.69557000
  C      1.11731000      4.58941000      1.96195000
  O      1.48240000      5.73041000      2.61720000
  C     -3.20306000      1.38198000      3.93814000
  O     -3.97937000      1.68928000      5.00838000
  C      1.73111000      5.09543000     -0.85787900
  O      2.26394000      6.30546000     -1.21000000
  C      2.89709000     -0.79635800      4.45298000
  O      3.38622000     -0.78773600      5.63384000
  C     -5.04366000      0.80647500     -1.73670000
  O     -6.28557000      0.84418300     -2.11475000
  C      0.15244100     -0.01307720     -5.19451000
  O      0.05762600     -0.28753200     -6.45887000
  C     -3.22597000      3.58543000     -1.89358000
  O     -4.08229000      4.55549000     -2.03703000
  C      1.82541000     -2.38751000     -4.89103000
  O      2.34080000     -3.08476000     -5.87021000
  C      3.98120000     -2.79247000     -1.87276000
  O      5.12024000     -3.42268000     -2.20201000
  C     -3.80320000     -1.40633000     -3.57311000
  O     -4.71297000     -1.57665000     -4.48345000
  C     -1.53511000      4.73680000      0.23271100
  O     -2.00938000      5.93986000      0.36461200
  C     -0.27841800     -1.08588000      5.37771000
  O     -0.47277000     -1.63380000      6.51343000
  C      4.95894000      0.31423900     -0.81696600
  O      6.30483000      0.30900700     -0.95793500
  C     -1.84233000      3.73223000      3.26903000
  O     -2.21836000      4.74482000      4.08488000
  C     -5.25497000      0.13894800      1.68780000
  O     -6.57002000     -0.08548660      2.01486000
  C      3.70298000      3.26774000     -2.31921000
  O      4.71729000      3.93681000     -2.87011000
  C      2.54901000      2.44332000      3.93446000
  O      3.21239000      3.12661000      4.84095000
  C      3.82069000      3.21850000      0.98195800
  O      4.89644000      3.96777000      1.16554000
  C     -0.92666800     -2.79996000     -4.27509000
  O     -1.05431000     -3.35082000     -5.44570000
  C      3.89750000      0.07951920     -3.75940000
  O      4.85766000      0.19113300     -4.70518000
  C     -3.16027000     -2.00747000      3.60587000
  O     -3.98075000     -2.55099000      4.49822000
  C     -0.72194000     -3.78470000      3.35910000
  O     -1.01992000     -4.82545000      4.15472000
  C     -3.28237000     -3.58254000      0.99713400
  O     -4.01245000     -4.48480000      1.56818000
  C     -4.72008000     -2.20289000     -1.26275000
  O     -5.87293000     -2.60730000     -1.68358000
  C      1.30319000     -4.77595000     -2.21307000
  O      1.65283000     -5.92014000     -2.74615000
  C      0.06432240      1.53125000      4.51469000
  O     -0.24353600      2.02177000      5.69886000
  C     -2.43889000      2.09934000     -4.24914000
  O     -2.96019000      2.60780000     -5.32391000
  C      4.35362000      0.37843000      2.35573000
  O      5.51069000      0.69072300      2.76112000
