#B3LYP/6-31+G(d) OPT FREQ

110, Energy = -11874.40951339 au

0 1
 Ni     -0.64343400     -3.48995000     -2.08002000
 Ni     -1.44442000     -0.04322420     -0.98223800
 Ni     -0.10564300     -4.19666000      0.35258700
 Ni      0.21614400      4.14852000     -0.26863400
 Ni     -0.89568800      2.33197000     -1.82050000
 Ni     -2.78496000      0.96688300      0.95295800
 Ni     -0.89678500     -0.69405300      1.42974000
 Ni      0.73748400      3.44726000      2.14888000
 Ni     -0.10726100     -1.06260000     -2.91778000
 Ni      2.88403000     -1.01098000     -0.89116400
 Ni      0.43861700     -1.73080000     -0.50668500
 Ni      1.82051000     -2.73111000     -2.48020000
 Ni      3.45913000      1.38667000     -1.74726000
 Ni      2.11458000     -0.65093600      3.50204000
 Ni      1.53704000      0.00347531      1.05535000
 Ni      2.36641000     -0.35592200     -3.33176000
 Ni      1.54744000      3.08017000     -2.21628000
 Ni     -2.56478000     -1.77702000     -2.57457000
 Ni      3.46886000     -1.67969000      1.55410000
 Ni     -1.98949000     -2.42639000     -0.12823100
 Ni      4.00845000      0.72526200      0.69129100
 Ni      0.98893800      0.65446000     -1.35715000
 Ni     -2.02398000      0.61633400     -3.42653000
 Ni     -3.92174000     -0.75998700     -0.62356800
 Ni      2.66412000      1.74147000      2.65417000
 Ni      0.19380100      1.01340000      3.00715000
 Ni      2.32097000     -3.42890000     -0.02801690
 Ni     -1.46010000     -3.11089000      2.28941000
 Ni     -2.24291000      3.38075000      0.11105200
 Ni      2.08877000      2.38750000      0.20789800
 Ni     -1.71549000      2.70180000      2.54939000
 Ni     -2.26340000      0.30544300      3.41483000
 Ni      0.44329800      1.33091000     -3.80195000
 Ni     -0.34641500      1.69132000      0.57939000
 Ni     -3.35970000     -1.43000000      1.82674000
 Ni     -0.34894200     -1.35546000      3.87591000
 Ni     -3.37238000      1.63910000     -1.47293000
 Ni      0.99231100     -2.38874000      1.89429000
  C     -1.80957000     -3.42586000     -3.93906000
  O     -2.30243000     -4.38337000     -4.69953000
  C     -0.21092200      0.27598800      5.05389000
  O     -0.33844800      0.42846900      6.33187000
  C     -2.26795000     -2.31545000      4.28333000
  O     -2.60751000     -2.74235000      5.51029000
  C      1.88750000      0.75736800     -5.08086000
  O      2.34808000      0.93194200     -6.31601000
  C     -5.27880000      1.11872000     -1.60238000
  O     -6.33013000      1.70327000     -2.18667000
  C      0.56851700      2.99339000      4.22461000
  O      0.69071500      3.95287000      5.15118000
  C     -2.58989000      2.11852000      4.27811000
  O     -3.25891000      2.83513000      5.20363000
  C      3.16990000      4.58964000     -1.36249000
  O      3.58251000      5.48853000     -2.18579000
  C      4.32862000      2.61595000      0.10496600
  O      5.42545000      3.28592000      0.15016700
  C     -3.53014000     -3.44568000      1.69667000
  O     -4.52679000     -4.22514000      2.17890000
  C      1.79890000      4.86357000      1.15608000
  O      2.16270000      6.11985000      1.49464000
  C      3.59289000      3.56441000      2.92497000
  O      4.32824000      3.97530000      3.87009000
  C     -1.00750000     -0.03398630     -5.21065000
  O     -1.54664000      0.02320320     -6.44339000
  C      0.69742200     -2.12920000     -4.53752000
  O      0.89559400     -2.76592000     -5.68919000
  C      0.42293000      3.57202000     -3.85186000
  O      0.52438400      4.24923000     -5.00384000
  C     -4.18752000      2.28657000      1.41051000
  O     -5.30593000      2.87593000      1.78953000
  C      2.90000000      0.61041700      4.94881000
  O      3.52509000      0.50405300      6.05815000
  C      4.72865000     -0.22107100      2.42611000
  O      6.04804000     -0.07535550      2.84249000
  C      4.10924000     -3.14907000     -0.90018500
  O      5.01244000     -4.13327000     -0.96895100
  C      1.31632000     -4.79912000     -2.06259000
  O      1.66128000     -5.80351000     -2.86638000
  C     -3.88655000     -0.47630900     -3.71594000
  O     -4.87161000     -0.83403100     -4.55336000
  C     -2.41892000      2.83907000     -3.55168000
  O     -3.07435000      3.47341000     -4.53727000
  C     -0.37765400     -5.03446000      2.42243000
  O     -0.86216300     -6.04059000      3.18153000
  C     -1.86655000     -5.04631000     -1.00254000
  O     -1.97417000     -6.36164000     -0.96193800
  C      1.34329000     -2.91134000      3.98647000
  O      1.60642000     -3.56606000      5.14345000
  C      4.21410000      1.76432000     -3.90718000
  O      5.37129000      2.17088000     -4.27941000
  C      3.62841000     -1.85534000     -3.30398000
  O      4.49154000     -2.26160000     -4.19359000
  C      5.10065000     -0.71868300     -1.09878000
  O      6.38504000     -0.72280900     -1.14030000
  C     -0.64548300      5.01257000     -1.94908000
  O     -0.61412400      6.32848000     -1.99993000
  C     -1.34605000      4.65377000      2.14121000
  O     -1.86001000      5.86628000      2.47127000
  C     -3.82156000     -3.07315000     -1.22654000
  O     -4.87562000     -3.85524000     -1.59906000
  C      3.55127000     -3.49280000      2.91213000
  O      4.68946000     -3.93636000      3.31094000
  C     -4.65755000     -0.15265100      3.39937000
  O     -5.52306000     -0.29394300      4.33730000
  C      1.55971000     -4.99288000      1.25863000
  O      2.06401000     -6.18206000      1.30569000
  C     -3.34298000      4.33540000     -1.30511000
  O     -4.14670000      5.34028000     -1.26201000
  C     -5.65725000     -0.96139800      0.79044300
  O     -6.94662000     -1.05371000      0.61510000

