#B3LYP/6-31+G(d) OPT FREQ

110, Energy = -12166.16133440 au

0 1
 Ni      1.43944000     -3.50075000     -2.15915000
 Ni     -0.85004500     -0.73670000     -1.29709000
 Ni      1.74603000     -4.08684000      0.36090500
 Ni     -1.17384000      3.72611000     -0.33900800
 Ni     -1.16860000      1.71116000     -2.04860000
 Ni     -2.86691000     -0.48247400      0.31372800
 Ni     -0.56182300     -1.27528000      1.19009000
 Ni     -0.92947500      3.11059000      2.17004000
 Ni      1.13519000     -1.00742000     -2.89618000
 Ni      3.46994000      0.13743300     -0.30517300
 Ni      1.42917000     -1.55123000     -0.41365400
 Ni      3.45557000     -1.77593000     -2.01794000
 Ni      3.11297000      2.56997000     -1.07285000
 Ni      1.72814000     -0.14766000      3.86057000
 Ni      1.39804000      0.36654900      1.31065000
 Ni      3.14309000      0.68728400     -2.77967000
 Ni      0.78694900      3.41738000     -1.91468000
 Ni     -0.84897400     -2.69066000     -3.07010000
 Ni      3.72717000     -0.43038600      2.23923000
 Ni     -0.55917200     -3.25484000     -0.54452300
 Ni      3.40334000      2.03715000      1.46115000
 Ni      1.11270000      0.90607100     -1.17279000
 Ni     -1.18945000     -0.22773300     -3.81497000
 Ni     -2.81332000     -2.42121000     -1.48949000
 Ni      1.38381000      2.27423000      3.10229000
 Ni     -0.57929700      0.63637100      2.95850000
 Ni      3.73653000     -2.33865000      0.47434600
 Ni     -0.25768900     -3.78754000      1.99258000
 Ni     -3.18820000      1.99222000     -0.42150900
 Ni      1.07883000      2.85333000      0.53745500
 Ni     -2.91566000      1.41598000      2.06718000
 Ni     -2.57549000     -1.05351000      2.83852000
 Ni      0.83056600      1.48059000     -3.69655000
 Ni     -0.87837400      1.18198000      0.43154800
 Ni     -2.52932000     -2.98685000      1.10164000
 Ni     -0.27136900     -1.87842000      3.71192000
 Ni     -3.14892000      0.03318960     -2.23510000
 Ni      1.76689000     -2.13559000      2.11390000
  C      3.60327000      0.32084100      4.04983000
  O      4.57984000      0.31907400      4.94615000
  C      0.68200200      4.89204000     -0.57790300
  O      0.88141800      6.15740000     -0.67635000
  C      0.54147200      4.48717000      2.41768000
  O      0.57988500      5.67641000      3.08831000
  C      3.12247000      3.28250000      2.96303000
  O      3.90752000      4.07087000      3.71588000
  C     -4.32213000      2.86933000     -1.93316000
  O     -5.37411000      3.49462000     -2.06282000
  C      4.04853000     -2.40935000      2.49072000
  O      5.12680000     -3.06848000      2.74488000
  C      1.66142000     -2.09438000      4.27590000
  O      2.09646000     -2.61291000      5.37481000
  C      4.90127000     -1.23985000     -0.76247200
  O      6.11494000     -1.53613000     -1.09479000
  C     -3.81889000     -2.55689000      2.57199000
  O     -4.78019000     -3.15899000      3.30573000
  C      1.63811000     -4.33022000      2.31236000
  O      2.03701000     -5.46625000      2.77999000
  C     -1.16443000     -3.60862000      3.69435000
  O     -1.40061000     -4.38255000      4.69439000
  C     -1.68725000     -4.75501000      1.05181000
  O     -2.25764000     -5.88045000      1.30857000
  C     -2.34611000      4.70053000      0.96493900
  O     -2.88423000      6.11876000      0.81335500
  C      4.96019000      0.75139700      1.07153000
  O      6.16583000      1.11113000      1.34833000
  C      0.31579300     -1.01222000     -5.02834000
  O      0.38738400     -1.18439000     -6.36184000
  C      2.49478000      0.61743500     -4.76991000
  O      3.43798000      0.88727300     -5.71948000
  C     -5.07307000     -0.67620400     -2.15395000
  O     -6.06223000     -0.66401000     -2.87382000
  C     -2.73129000      1.29402000     -3.98436000
  O     -3.44216000      1.65981000     -5.06021000
  C     -4.91584000      0.02976870      0.72541000
  O     -6.20593000     -0.00855658      0.90202800
  C     -0.40547800      2.50643000     -4.96341000
  O     -0.35192400      2.94867000     -6.08389000
  C     -3.57870000      0.42457600      3.68032000
  O     -4.51165000      0.50299500      4.63056000
  C      0.48366600     -4.93988000     -0.83643200
  O      0.56735000     -6.22068000     -0.98973800
  C     -2.03812000     -4.11435000     -2.14309000
  O     -2.60393000     -5.14772000     -2.66072000
  C      2.86183000     -2.16147000     -4.05439000
  O      3.93221000     -2.71566000     -4.64374000
  C      3.45534000      3.96835000      0.40224000
  O      4.37370000      4.90081000      0.16231900
  C     -2.45043000     -1.78288000     -3.95976000
  O     -3.08710000     -2.24954000     -4.98076000
  C      0.89306900      1.53662000      4.81140000
  O      1.11223000      2.01989000      5.98232000
  C     -1.74312000      2.75047000      3.92737000
  O     -2.19880000      3.53811000      4.87088000
  C      2.43646000      3.54020000     -3.19313000
  O      2.84625000      4.63980000     -3.89408000
  C     -4.09493000      2.93176000      1.45977000
  O     -5.13504000      3.54914000      2.03299000
  C     -1.47129000      4.00353000     -2.55427000
  O     -1.88944000      5.05674000     -3.27459000
  C      4.66630000      1.54844000     -1.85139000
  O      5.74429000      1.95391000     -2.42499000
  C     -1.06977000     -0.49091500      4.88393000
  O     -1.37036000     -0.59158800      6.21490000
  C      0.62092200     -3.70616000     -3.88728000
  O      0.79117000     -4.66387000     -4.73029000
  C      3.36409000     -3.75641000     -0.99092600
  O      4.10797000     -4.81452000     -1.09359000
  C     -4.32049000     -2.84546000     -0.19346500
  O     -5.41149000     -3.61834000     -0.45991400

