110
Energy = -12484.83126982 au
 Ni     -0.27383000     -3.44620000     -2.28102000
 Ni     -1.33857000      0.00163455     -1.22409000
 Ni      0.30969500     -4.11014000     -0.00554090
 Ni     -0.08039760      4.37161000     -0.32956800
 Ni     -1.09355000      2.66363000     -2.20361000
 Ni     -2.78967000      0.90930100      0.76751500
 Ni     -0.75925900     -0.61020200      1.24232000
 Ni      0.47689200      3.82748000      1.95467000
 Ni      0.07052600     -1.06596000     -3.39907000
 Ni      3.14573000     -0.64233100     -1.17751000
 Ni      0.68891600     -1.52919000     -0.74597800
 Ni      2.09618000     -2.50010000     -2.81672000
 Ni      3.46205000      1.85298000     -2.01371000
 Ni      2.24294000     -0.36183500      3.31498000
 Ni      1.64376000      0.32555600      0.83195200
 Ni      2.40039000      0.00786171     -3.63791000
 Ni      1.43626000      3.40292000     -2.39550000
 Ni     -2.38432000     -1.86415000     -2.77775000
 Ni      3.74279000     -1.29865000      1.25187000
 Ni     -1.72681000     -2.46298000     -0.37489800
 Ni      4.09083000      1.28499000      0.44371100
 Ni      1.03377000      0.91565500     -1.58584000
 Ni     -1.97678000      0.62232000     -3.69385000
 Ni     -3.82304000     -1.07192000     -0.90390800
 Ni      2.58273000      2.23538000      2.46146000
 Ni      0.19571900      1.25985000      2.82111000
 Ni      2.90806000     -3.11069000     -0.17473400
 Ni     -1.20533000     -3.07644000      2.12404000
 Ni     -2.51334000      3.49836000     -0.05888050
 Ni      2.12043000      3.03282000     -0.06200170
 Ni     -1.85047000      2.88499000      2.31406000
 Ni     -2.19377000      0.26804800      3.37074000
 Ni      0.49195700      1.66936000     -4.03062000
 Ni     -0.39682900      1.85997000      0.36140200
 Ni     -3.29721000     -1.61121000      1.69249000
 Ni     -0.18481100     -1.35486000      3.85911000
 Ni     -3.43839000      1.40839000     -1.71266000
 Ni      1.28651000     -2.14850000      1.68516000
  C     -2.55747000     -4.13611000      0.66005900
  O     -3.31572000     -5.22347000      0.53559500
  C     -3.99427000      1.24898000      2.69273000
  O     -5.18282000      1.62664000      3.17255000
  C      0.81010500     -2.75608000      4.99986000
  O      0.79200700     -3.01456000      6.25346000
  C     -4.06190000      3.79334000      1.13572000
  O     -4.93622000      4.75693000      1.08313000
  C      4.18673000      3.33376000      1.24996000
  O      5.35437000      3.95809000      1.51494000
  C     -4.16344000      0.11049000     -3.29955000
  O     -5.28851000      0.27201600     -4.05734000
  C      1.62992000      4.71706000      0.70237100
  O      2.32227000      5.82344000      0.87024800
  C     -4.50965000     -2.93003000     -1.68034000
  O     -5.69486000     -3.32869000     -2.00574000
  C     -1.28681000      4.64888000      1.65069000
  O     -1.63990000      5.78416000      2.18440000
  C      0.19394600      3.50161000     -3.77189000
  O      0.13377500      4.41773000     -4.69165000
  C      0.00461747     -5.69027000     -1.12958000
  O      0.20490500     -6.99196000     -1.00544000
  C     -5.00394000      0.90227000     -0.39130800
  O     -6.32672000      1.11898000     -0.26043600
  C     -5.21717000     -1.34791000      1.73063000
  O     -6.17801000     -2.02425000      2.24276000
  C      3.10122000      3.83293000     -1.67864000
  O      3.83611000      4.85173000     -1.94302000
  C     -0.80251100      5.26540000     -1.91260000
  O     -1.07197000      6.55314000     -1.98791000
  C     -2.21276000     -1.36346000     -4.78686000
  O     -2.92238000     -1.87380000     -5.81289000
  C      5.23701000      0.91239900     -1.48439000
  O      6.44612000      1.28946000     -1.96573000
  C      3.46408000      1.10264000      3.95991000
  O      4.31713000      1.30634000      4.98618000
  C      3.05155000     -2.13387000      3.56996000
  O      3.77484000     -2.81362000      4.46216000
  C     -2.27009000     -0.68317900      5.04459000
  O     -3.06193000     -0.88495000      6.05693000
  C      5.29496000     -0.05453930      1.54892000
  O      6.58199000     -0.20386300      1.94522000
  C     -1.56977000      2.10886000     -4.93174000
  O     -2.02117000      2.50634000     -6.13567000
  C      0.53539300      0.57697500      4.90046000
  O      0.59959700      1.02668000      6.16812000
  C     -2.59595000     -3.03590000      3.54011000
  O     -3.15128000     -3.99058000      4.27754000
  C      2.43688000     -4.34052000     -1.90358000
  O      3.18431000     -5.32920000     -2.47102000
  C     -2.93127000      3.32732000     -2.14851000
  O     -3.61060000      4.08232000     -2.92127000
  C      1.30335000      3.65925000      3.81817000
  O      1.70077000      4.55020000      4.72900000
  C      4.39080000     -2.04093000     -0.72107800
  O      5.57106000     -2.28386000     -1.18510000
  C      0.73295400     -0.10492700     -4.87958000
  O      0.71443300     -0.33329500     -6.13360000
  C      3.39523000     -4.03283000      1.59575000
  O      4.21461000     -5.03765000      1.71340000
  C      0.47340100     -4.41976000      2.34233000
  O      0.74917900     -5.49858000      3.10173000
  C      0.67136400     -2.95440000     -4.01650000
  O      0.63558300     -3.67085000     -5.09325000
  C     -2.04956000     -4.10275000     -2.51265000
  O     -2.54726000     -5.22579000     -3.08491000
  C      3.60806000     -1.58369000     -3.78705000
  O      4.45570000     -1.97236000     -4.79242000
  C     -1.72201000      2.49579000      4.34120000
  O     -2.16241000      3.25943000      5.33423000
  C      2.68973000      1.92302000     -3.94501000
  O      3.36520000      2.35480000     -4.96426000
