#B3LYP/6-31+G(d) OPT FREQ

110, Energy = -12328.10290603 au

0 1
 Ni     -3.69118000     -1.22025000      0.97663900
 Ni     -1.01981000      1.35091000      0.97097100
 Ni     -2.21822000     -2.79434000      2.47898000
 Ni      2.68494000      2.96563000     -1.25228000
 Ni      0.00702333      2.92509000     -0.81727400
 Ni      0.52162600      2.44248000      2.82383000
 Ni      0.48529000     -0.19586800      2.35828000
 Ni      4.07950000      1.41966000      0.19630300
 Ni     -2.60580000      0.34878100     -0.82700400
 Ni     -0.08984760     -2.19359000     -1.58084000
 Ni     -1.08793000     -1.20367000      0.59461600
 Ni     -2.72650000     -2.21063000     -1.29118000
 Ni      0.99752100     -0.58979900     -3.46532000
 Ni      3.08729000     -2.74843000      1.64900000
 Ni      1.46448000     -1.17779000      0.20864400
 Ni     -1.64266000     -0.60467400     -3.10414000
 Ni      1.07909000      1.96400000     -3.06748000
 Ni     -3.61784000      1.36813000      1.41787000
 Ni      1.44806000     -3.82144000     -0.15295600
 Ni     -2.16585000     -0.24476700      2.83419000
 Ni      2.54150000     -2.16130000     -2.00516000
 Ni     -0.03583220      0.36544800     -1.19611000
 Ni     -2.63538000      2.96546000     -0.36490100
 Ni     -2.10698000      2.41641000      3.11361000
 Ni      4.09115000     -1.22582000     -0.15877400
 Ni      3.15589000     -0.25497600      2.04977000
 Ni     -1.15861000     -3.79665000      0.18584800
 Ni     -0.57123500     -1.83338000      4.13855000
 Ni      1.62599000      3.90082000      0.96043800
 Ni      2.56091000      0.38744000     -1.61801000
 Ni      3.09441000      2.35354000      2.45870000
 Ni      2.12751000      0.85710400      4.16052000
 Ni     -1.59178000      1.94326000     -2.69329000
 Ni      1.54408000      1.37174000      0.58423200
 Ni     -0.46485400      0.80565000      4.49384000
 Ni      1.98664000     -1.81341000      3.74826000
 Ni     -1.05036000      3.92883000      1.43028000
 Ni      0.44475200     -2.87313000      2.02651000
  C     -1.31633000      4.01399000     -2.60449000
  O     -1.64014000      5.11452000     -3.29619000
  C      0.72673800      5.23131000      2.32463000
  O      1.33280000      6.41075000      2.44832000
  C     -2.33049000      1.48482000      4.92308000
  O     -2.45012000      1.55317000      6.28585000
  C      2.67430000      0.56508300     -4.33308000
  O      3.42134000      0.63966700     -5.40050000
  C      0.37818000     -5.28112000     -0.99094300
  O      0.42715600     -6.60493000     -1.01754000
  C      3.95691000     -1.90171000      3.15974000
  O      4.64968000     -2.21483000      4.20508000
  C     -3.59146000      3.15949000      1.91717000
  O     -4.58564000      3.84272000      2.38645000
  C      3.20611000     -4.01399000     -1.52416000
  O      4.00508000     -5.04273000     -1.87947000
  C     -4.02671000      0.19109700      2.97861000
  O     -4.96726000      0.17333500      3.86005000
  C     -4.23590000      3.19494000     -1.41584000
  O     -5.11010000      4.11442000     -1.59527000
  C      2.00939000     -4.35346000      1.57991000
  O      2.51769000     -5.45057000      2.04117000
  C     -2.86955000     -1.83069000     -3.96444000
  O     -3.49328000     -2.23326000     -4.96625000
  C     -1.78177000      5.17569000     -0.03406830
  O     -2.11154000      6.43690000      0.22159100
  C      4.38874000     -0.99094600     -2.21282000
  O      5.54146000     -1.19274000     -2.85348000
  C      1.73853000      2.68413000      4.28227000
  O      2.08029000      3.49781000      5.22624000
  C     -1.93442000      1.66341000     -4.65429000
  O     -2.39746000      2.10750000     -5.70839000
  C      0.95218800     -0.48378700      5.25154000
  O      1.32774000     -0.56811900      6.49353000
  C     -2.64842000     -4.20354000     -0.96030000
  O     -3.37711000     -5.34227000     -1.27152000
  C      2.01332000     -2.57423000     -3.92568000
  O      2.57426000     -3.25577000     -4.92851000
  C     -4.69683000     -2.00801000     -1.35718000
  O     -5.80491000     -2.52792000     -1.74230000
  C      0.76236800     -3.29150000      3.90830000
  O      0.82036900     -4.15134000      4.87280000
  C      0.97766900      3.37053000     -4.41516000
  O      1.28402000      3.94122000     -5.49914000
  C      4.11847000      2.39038000     -2.65693000
  O      5.09517000      3.14316000     -3.05983000
  C     -5.12654000      0.45959100      0.28378900
  O     -6.46947000      0.61596800      0.35871700
  C     -0.12359300     -0.61311700     -5.08811000
  O     -0.12185100     -0.80121900     -6.37029000
  C      4.82023000     -2.49251000      1.02231000
  O      6.00373000     -2.99932000      1.10096000
  C      5.78401000      0.08636870     -0.10659200
  O      6.96523000      0.62952400      0.12185200
  C     -2.43316000     -1.98438000      4.24427000
  O     -3.00598000     -2.38665000      5.33108000
  C      3.73687000      3.44499000      0.74061500
  O      4.67247000      4.30172000      1.01528000
  C     -4.10759000      0.69672300     -2.88516000
  O     -5.19565000      0.91661800     -3.52521000
  C      3.99913000      0.92200600      3.31164000
  O      5.11763000      1.12763000      3.93342000
  C     -4.09506000     -2.97711000      1.80718000
  O     -5.23709000     -3.60706000      2.20904000
  C     -1.05320000      3.95858000      3.39683000
  O     -1.33640000      4.84422000      4.29465000
  C      1.57517000      4.64117000     -1.37335000
  O      1.91894000      5.88860000     -1.83077000
  C     -0.64837400     -3.69520000     -3.43989000
  O     -0.73762100     -4.72213000     -4.21078000
  C     -1.23845000     -4.91640000      1.92652000
  O     -1.71684000     -6.01238000      2.49500000

