#B3LYP/6-31+G(d) OPT FREQ

110, Energy = -12593.75083948 au

0 1
 Ni      1.24565000     -3.28797000     -2.14996000
 Ni     -0.80347600     -0.19758700     -1.02501000
 Ni      1.74512000     -3.91271000      0.38539900
 Ni     -0.56243000      4.28924000     -0.03913220
 Ni     -0.95304400      2.41712000     -1.92850000
 Ni     -2.70785000      0.25393000      0.76170700
 Ni     -0.36268800     -0.79087800      1.45064000
 Ni     -0.19546900      3.65040000      2.43347000
 Ni      1.01942000     -0.65570400     -2.82592000
 Ni      4.01783000      0.19844800     -0.38240900
 Ni      1.47353000     -1.25167000     -0.32194300
 Ni      3.35729000     -1.76621000     -2.04398000
 Ni      3.49597000      2.78626000     -1.15878000
 Ni      2.23094000      0.14547700      3.96555000
 Ni      1.76452000      0.67476900      1.42206000
 Ni      3.20372000      1.00474000     -2.78749000
 Ni      1.26784000      3.79906000     -1.91194000
 Ni     -1.14772000     -2.20319000     -2.92113000
 Ni      4.00288000     -0.28903600      2.22046000
 Ni     -0.65571000     -2.76438000     -0.29676300
 Ni      3.94790000      2.08594000      1.41891000
 Ni      1.33028000      1.26273000     -1.05126000
 Ni     -1.35158000      0.39676400     -3.63021000
 Ni     -3.04208000     -1.74919000     -1.10363000
 Ni      1.97266000      2.60847000      3.15273000
 Ni     -0.07209910      1.10563000      3.49583000
 Ni      3.70292000     -2.33567000      0.23700600
 Ni     -0.25504100     -3.48796000      2.25188000
 Ni     -2.87226000      2.74558000      0.01081170
 Ni      1.84996000      3.52487000      0.69186700
 Ni     -2.38958000      2.19796000      2.61988000
 Ni     -2.21584000     -0.42730800      3.31108000
 Ni      0.89728000      2.10274000     -3.57432000
 Ni     -0.50881400      1.70046000      0.71460700
 Ni     -2.53858000     -2.42795000      1.48653000
 Ni      0.07199780     -1.44667000      4.11984000
 Ni     -3.18918000      0.91220200     -1.85646000
 Ni      1.97806000     -1.91840000      2.35467000
  C      1.14095000     -5.52093000      1.25805000
  O      1.46172000     -6.77924000      1.24623000
  C     -2.83598000     -3.26459000     -2.81462000
  O     -3.57119000     -4.01777000     -3.62424000
  C      3.84632000     -3.43857000      2.06725000
  O      4.97333000     -4.12002000      2.26685000
  C     -4.69327000      2.17068000     -0.55820300
  O     -5.80637000      2.88531000     -0.76856000
  C     -1.59275000     -4.60044000     -0.68014300
  O     -1.85709000     -5.89663000     -0.80479200
  C     -2.62871000      0.93273500      4.63784000
  O     -3.40074000      1.02823000      5.71929000
  C      3.95399000      3.71090000      0.36751900
  O      4.86107000      4.60762000      0.59766000
  C     -1.90651000      4.91529000      1.42593000
  O     -2.15050000      6.07379000      2.08370000
  C      5.27041000      0.67338700      1.08103000
  O      6.52390000      0.55813000      1.38915000
  C      0.05229950     -1.63808000     -4.65063000
  O      0.25092100     -2.03157000     -5.90102000
  C      1.16754000     -3.27273000      3.41293000
  O      1.70020000     -4.15149000      4.20130000
  C      3.49106000     -1.17765000      3.75897000
  O      4.16961000     -1.71336000      4.71955000
  C      2.99545000     -1.62482000     -4.14483000
  O      3.80245000     -2.23221000     -4.97537000
  C      2.82141000     -3.84475000     -1.29752000
  O      3.46034000     -4.88925000     -1.74419000
  C      2.87604000      3.46973000     -2.69680000
  O      3.53192000      4.33774000     -3.38092000
  C     -0.54413400      2.86669000      4.00238000
  O     -0.66375200      3.33192000      5.18928000
  C     -2.42103000      4.52656000     -1.31849000
  O     -2.99605000      5.70220000     -1.55438000
  C      1.49657000      4.29761000      2.37482000
  O      2.01001000      5.41286000      2.78251000
  C     -1.91341000     -4.55977000      2.39368000
  O     -2.32703000     -5.63456000      3.02906000
  C     -4.46765000      3.04426000      2.37073000
  O     -5.18969000      3.71102000      3.18190000
  C      3.55089000      1.65378000      3.59583000
  O      4.32592000      2.07772000      4.55055000
  C     -2.96552000      2.27692000     -3.32666000
  O     -3.76279000      2.98472000     -4.15570000
  C      0.11743600     -4.30523000     -3.40759000
  O      0.17998400     -5.37740000     -4.14219000
  C      4.77031000      1.30063000     -1.74070000
  O      6.00451000      1.35075000     -2.14409000
  C      2.44097000      1.07082000     -4.80828000
  O      3.17022000      1.45810000     -5.83471000
  C     -4.68064000     -0.44283000     -1.90645000
  O     -5.90584000     -0.55435500     -2.38864000
  C      4.88699000     -1.59362000     -0.97867800
  O      6.13427000     -1.84704000     -1.23339000
  C     -4.08693000     -3.04166000     -0.04616320
  O     -5.18351000     -3.77994000     -0.11082300
  C      1.09252000      5.01252000     -0.48448000
  O      1.42306000      6.26839000     -0.40807700
  C     -3.57957000     -2.04200000      3.13131000
  O     -4.58598000     -2.63036000      3.80712000
  C     -2.83021000     -0.70962300     -4.20153000
  O     -3.47918000     -0.83332500     -5.34570000
  C     -1.33056000     -2.40306000      5.08996000
  O     -1.49092000     -2.79034000      6.31439000
  C     -0.37383800      1.56464000     -5.25427000
  O     -0.50669800      1.87615000     -6.53562000
  C     -4.79901000     -0.12736300      1.26800000
  O     -5.99019000      0.05528450      1.59433000
  C     -0.02444980      3.71885000     -3.26700000
  O     -0.38997500      4.67475000     -4.06141000
  C      0.71848800      0.21545200      5.06960000
  O      0.76550000      0.54339600      6.32358000

