#B3LYP/6-31+G(d) OPT FREQ

110, Energy = -12403.80755679 au

0 1
 Ni     -0.28143500     -3.16674000     -2.12106000
 Ni     -1.59370000      0.24920800     -1.19440000
 Ni     -0.12582400     -3.79045000      0.41431100
 Ni     -0.42075700      4.54503000     -0.36517200
 Ni     -1.17993000      2.79313000     -2.05601000
 Ni     -3.59477000      1.20318000      0.48125400
 Ni     -1.40965000     -0.34409100      1.29034000
 Ni     -0.26999300      3.85762000      2.25102000
 Ni      0.17570000     -0.65720800     -2.88302000
 Ni      2.76875000     -0.30290500     -0.33670000
 Ni      0.33721700     -1.25919000     -0.37075800
 Ni      2.22035000     -2.21016000     -2.11041000
 Ni      3.27025000      2.11659000     -1.14803000
 Ni      1.18613000      0.05081420      3.93525000
 Ni      0.97950300      0.57594300      1.33496000
 Ni      2.64204000      0.28567000     -2.85847000
 Ni      1.21809000      3.70056000     -1.89744000
 Ni     -2.31448000     -1.52547000     -2.97373000
 Ni      2.98315000     -0.94278000      2.21173000
 Ni     -2.08721000     -2.24994000     -0.42846500
 Ni      3.42656000      1.60682000      1.43916000
 Ni      0.80269600      1.17365000     -1.15343000
 Ni     -1.90045000      0.82626700     -3.68697000
 Ni     -4.06172000     -0.57686200     -1.36326000
 Ni      1.66488000      2.48700000      3.12509000
 Ni     -0.75653400      1.54796000      3.18619000
 Ni      2.29095000     -2.86688000      0.47369400
 Ni     -1.87396000     -2.83465000      2.11238000
 Ni     -2.94053000      3.52879000     -0.27923500
 Ni      1.54441000      3.12453000      0.60915900
 Ni     -2.73174000      2.92531000      2.16073000
 Ni     -3.20945000      0.58003000      3.00667000
 Ni      0.64093900      1.85297000     -3.76137000
 Ni     -0.93750300      2.07953000      0.51063900
 Ni     -3.88651000     -1.28610000      1.27883000
 Ni     -1.22352000     -0.92025600      3.89947000
 Ni     -3.54088000      1.73149000     -2.09218000
 Ni      0.53582900     -1.89910000      2.13164000
  C     -1.10956000     -4.74377000      1.94814000
  O     -1.40184000     -5.89863000      2.47759000
  C     -3.11140000     -0.53795700      4.60057000
  O     -3.91721000     -0.66204000      5.57784000
  C     -2.71441000     -4.09360000     -0.53961800
  O     -3.49494000     -5.10124000     -0.71668700
  C     -4.74162000      0.24428000      1.76581000
  O     -6.00995000      0.28249800      2.05790000
  C      1.85724000     -0.78857500     -4.53723000
  O      2.23389000     -1.05670000     -5.76903000
  C     -2.02740000     -3.57504000     -3.22939000
  O     -2.48628000     -4.38405000     -4.13859000
  C     -1.09618000     -0.79243600     -4.86532000
  O     -1.22343000     -1.03649000     -6.11232000
  C      1.64380000     -4.01536000      2.33818000
  O      2.05043000     -5.01644000      3.06034000
  C      1.12483000     -3.53768000     -3.64292000
  O      1.35373000     -4.52653000     -4.46805000
  C      3.09282000      3.52314000     -2.73980000
  O      3.67630000      4.58994000     -3.30045000
  C     -5.00660000      1.06401000     -1.09839000
  O     -6.17054000      1.49964000     -1.49193000
  C      0.10157400     -5.14194000     -1.12016000
  O      0.15846900     -6.45051000     -1.24802000
  C     -3.11739000      3.71156000     -2.61044000
  O     -3.77852000      4.80813000     -2.38806000
  C      2.34413000     -1.62675000      4.25128000
  O      2.91518000     -2.00902000      5.38704000
  C      4.89505000      2.31126000     -0.06856050
  O      6.01818000      3.02676000     -0.35494500
  C      4.10396000     -2.50973000      1.74277000
  O      5.18411000     -3.10316000      2.26114000
  C     -4.28626000      2.92408000      0.88921300
  O     -5.29105000      3.54417000      1.44482000
  C      4.58417000      0.42347000      2.50110000
  O      5.75035000      0.60920100      3.06718000
  C      4.07908000     -2.24077000     -2.71738000
  O      4.90737000     -2.91991000     -3.43879000
  C      4.42810000      1.23094000     -3.18228000
  O      5.24350000      1.40834000     -4.15235000
  C      2.90670000     -4.30994000     -0.64821000
  O      3.73463000     -5.31956000     -0.64038900
  C     -3.81303000     -0.55627300     -3.36564000
  O     -4.70769000     -0.81684200     -4.26404000
  C     -0.71006000     -2.80773000      4.36629000
  O     -0.81694400     -3.40410000      5.52473000
  C     -1.90712000      4.80306000      1.19956000
  O     -2.12112000      6.06448000      1.38320000
  C      0.60862900      3.88908000      3.84305000
  O      0.66335900      4.93649000      4.59491000
  C      3.01445000      3.39498000      1.93483000
  O      3.80304000      4.36234000      2.28869000
  C     -4.86605000     -2.22729000     -0.38196800
  O     -6.12537000     -2.61445000     -0.77244300
  C      2.40233000      1.36782000      4.44996000
  O      3.12054000      1.81951000      5.52715000
  C      1.33231000      4.90169000     -0.10178100
  O      1.79825000      6.10884000      0.04788920
  C     -2.79980000      2.83047000     -3.79554000
  O     -3.07014000      2.96444000     -5.05488000
  C     -2.30603000      2.51190000      3.87612000
  O     -2.73612000      3.19304000      4.90185000
  C      4.93059000     -0.75468200     -0.52434700
  O      6.17082000     -0.84134900     -0.70168600
  C      0.79910400      2.36036000     -5.61623000
  O      1.02871000      2.94354000     -6.62193000
  C     -0.39150600      4.45310000     -2.55847000
  O     -0.60835300      5.48076000     -3.32161000
  C     -3.81714000     -2.84379000      2.53855000
  O     -4.76644000     -3.67392000      3.08758000
  C     -0.32427100      0.49048000      4.94836000
  O     -0.41700500      0.71769200      6.22128000

