110
Energy = -12396.98158304 au
 Ni      3.21759000     -0.95211900     -2.77515000
 Ni      0.07393400     -1.69910000     -0.87686700
 Ni      4.34457000     -0.00578981     -0.58023700
 Ni     -3.99386000     -0.01873440      0.62541700
 Ni     -2.52873000     -1.35075000     -1.21439000
 Ni     -0.40644000     -3.06688000      1.38150000
 Ni      1.22737000     -0.92571400      1.29104000
 Ni     -2.82150000      0.76931600      2.80657000
 Ni      0.54906600     -0.47483400     -3.11242000
 Ni      0.72265900      2.73658000     -1.36530000
 Ni      1.71012000      0.30667500     -0.95448800
 Ni      2.18224000      1.61350000     -3.24669000
 Ni     -1.86418000      3.22530000     -1.65481000
 Ni      1.51037000      2.39211000      3.16230000
 Ni      0.30274400      1.50457000      0.92409400
 Ni     -0.41742600      2.03910000     -3.54059000
 Ni     -3.51889000      1.15090000     -1.62599000
 Ni      1.38413000     -3.02253000     -2.75348000
 Ni      1.90715000      3.56247000      0.88441900
 Ni      2.84002000     -2.26463000     -0.64165300
 Ni     -0.65886700      3.97299000      0.55795200
 Ni     -0.88430500      0.71687900     -1.26915000
 Ni     -1.13951000     -2.56194000     -3.07146000
 Ni      0.90284900     -4.23459000     -0.51686100
 Ni     -1.11329000      2.69916000      2.89847000
 Ni     -0.18845700      0.29879800      3.18800000
 Ni      3.30246000      2.32872000     -1.00792000
 Ni      3.74787000     -1.28450000      1.69858000
 Ni     -3.03147000     -2.55640000      1.06010000
 Ni     -2.30837000      1.95700000      0.60882000
 Ni     -1.69202000     -1.78352000      3.33822000
 Ni      0.84455900     -2.21829000      3.60098000
 Ni     -2.12838000     -0.06160530     -3.51158000
 Ni     -1.33876000     -0.51234300      0.98670100
 Ni      2.23932000     -3.35043000      1.66029000
 Ni      2.34899000     -0.09139730      3.47264000
 Ni     -1.55922000     -3.81680000     -0.94256200
 Ni      2.86427000      1.12974000      1.20694000
  C     -4.53609000     -1.17863000     -1.64208000
  O     -5.58944000     -1.80222000     -2.15081000
  C     -2.66560000     -0.35552900      4.48559000
  O     -3.41492000     -0.44848200      5.62428000
  C      0.37988800     -2.52737000     -4.65303000
  O      0.43797100     -2.97946000     -5.92448000
  C      2.57292000      4.25890000     -1.41869000
  O      3.01594000      5.45309000     -1.85343000
  C      2.69040000     -4.23029000     -0.00930331
  O      3.47137000     -5.24636000     -0.20192200
  C     -4.15306000      2.17933000      2.45686000
  O     -5.12630000      2.78669000      3.09111000
  C     -2.78171000     -1.39361000     -4.70317000
  O     -3.44958000     -1.51384000     -5.81698000
  C     -1.92488000      3.38873000     -3.86632000
  O     -2.29675000      4.20413000     -4.84980000
  C     -3.54183000      3.72679000     -0.75909000
  O     -4.44159000      4.69704000     -0.82847100
  C      0.26371800     -4.55133000     -2.31251000
  O      0.31939600     -5.73127000     -2.84426000
  C     -4.62761000     -1.37701000      2.06987000
  O     -5.85958000     -1.71675000      2.49985000
  C      4.61428000     -1.56902000     -1.65655000
  O      5.77915000     -2.05071000     -1.95375000
  C      1.62101000      3.17720000     -4.25013000
  O      2.09306000      3.95723000     -5.20625000
  C      3.31242000     -3.26748000     -3.18793000
  O      3.98257000     -4.04288000     -4.05314000
  C      3.79070000      1.16454000      3.60018000
  O      4.81182000      1.44000000      4.41745000
  C      1.16523000     -4.49043000      2.96843000
  O      1.48807000     -5.67017000      3.52449000
  C     -3.70281000     -3.98690000     -0.19208300
  O     -4.63826000     -4.93655000     -0.10045600
  C     -0.15382600      0.68505900     -5.01159000
  O      0.01098400      0.72146000     -6.35932000
  C      0.93416500      5.37734000      1.04280000
  O      1.11295000      6.59675000      1.54586000
  C      5.35997000      0.47983100      1.11274000
  O      6.63735000      0.83285100      1.30411000
  C     -0.63636300     -4.78852000      0.41105200
  O     -0.94879500     -5.99450000      0.77497500
  C     -0.52179400      4.99601000     -1.52285000
  O     -0.55894300      6.24351000     -1.99127000
  C     -3.86655000      1.51968000     -3.56826000
  O     -4.94457000      1.88707000     -4.24364000
  C     -1.27187000      2.36621000      4.79499000
  O     -1.74287000      3.09361000      5.76390000
  C      4.63068000     -3.01726000      1.23504000
  O      5.78000000     -3.50638000      1.71237000
  C     -5.28787000      1.41986000     -0.20660800
  O     -6.59133000      1.63537000     -0.23879800
  C     -2.70008000     -3.84094000     -2.88247000
  O     -3.31359000     -4.73509000     -3.66099000
  C      4.75535000      1.62994000     -2.16769000
  O      5.86398000      2.21212000     -2.68462000
  C     -0.50183700     -2.40880000      5.17283000
  O     -0.63425500     -3.12102000      6.27838000
  C     -2.49610000     -3.65689000      2.83601000
  O     -3.07377000     -4.62801000      3.60550000
  C      2.77009000     -1.94383000      3.72754000
  O      3.41985000     -2.37207000      4.76966000
  C     -2.21389000      4.39208000      2.06803000
  O     -2.73697000      5.54445000      2.49256000
  C      0.75681800      0.47622000      5.03371000
  O      0.60445700      0.66491200      6.34624000
  C      3.75403000      3.40447000      1.44010000
  O      4.82945000      4.15942000      1.70480000
  C      2.92097000      0.10791300     -4.45252000
  O      3.66735000      0.08419470     -5.60632000
  C      1.74556000      4.13512000      3.86004000
  O      2.05159000      4.73336000      4.95485000
