110
Energy = -11859.07127322 au
 Ni      0.10576000     -3.27679000     -2.14184000
 Ni     -1.58123000     -0.17914100     -1.02117000
 Ni      0.81818900     -3.83021000      0.27863700
 Ni     -1.10893000      4.30773000     -0.29296800
 Ni     -1.70180000      2.26849000     -1.85914000
 Ni     -3.13515000      0.42780500      0.92831800
 Ni     -0.86253700     -0.66892500      1.38408000
 Ni     -0.39958000      3.75767000      2.11920000
 Ni     -0.03154670     -0.78974400     -2.97200000
 Ni      2.83672000      0.04888230     -0.94899700
 Ni      0.68906300     -1.30014000     -0.56562700
 Ni      2.27021000     -1.89728000     -2.54751000
 Ni      2.74328000      2.52141000     -1.79819000
 Ni      2.03817000      0.17079700      3.44150000
 Ni      1.29087000      0.65859600      1.00002000
 Ni      2.14149000      0.56062200     -3.39383000
 Ni      0.45087300      3.62658000     -2.25477000
 Ni     -2.20491000     -2.14614000     -2.61330000
 Ni      3.60254000     -0.44120100      1.47374000
 Ni     -1.45789000     -2.62152000     -0.19007500
 Ni      3.47531000      2.02200000      0.63047800
 Ni      0.57210100      1.14831000     -1.40506000
 Ni     -2.32913000      0.31524400     -3.45816000
 Ni     -3.76831000     -1.53941000     -0.65685900
 Ni      1.91118000      2.62181000      2.59936000
 Ni     -0.25824100      1.27009000      2.95732000
 Ni      2.97378000     -2.41932000     -0.11979200
 Ni     -0.73899100     -3.15168000      2.24106000
 Ni     -3.26200000      2.89760000      0.09935650
 Ni      1.16958000      3.10385000      0.16212800
 Ni     -2.55734000      2.38166000      2.52523000
 Ni     -2.43286000     -0.08465800      3.37648000
 Ni     -0.15858500      1.66234000     -3.83843000
 Ni     -0.97982600      1.78075000      0.54498800
 Ni     -3.03589000     -2.03134000      1.79038000
 Ni     -0.14291000     -1.18166000      3.82365000
 Ni     -3.89534000      0.92266500     -1.49147000
 Ni      1.41068000     -1.78562000      1.83313000
  C     -4.81612000      1.62995000      0.84926700
  O     -6.03451000      1.96718000      1.08984000
  C     -1.00511000      3.76742000      4.20887000
  O     -1.00382000      4.96613000      4.73359000
  C      0.48228100      5.96489000      0.11519400
  O     -0.03638110      7.13780000     -0.02390000
  C      4.24276000     -1.05280000      3.26411000
  O      5.19316000     -1.23900000      4.10769000
  C     -1.34944000      4.11054000     -3.09556000
  O     -1.35920000      5.19011000     -3.80300000
  C     -5.39771000     -1.27849000      0.79428900
  O     -6.55139000     -1.81152000      0.51056700
  C      2.80016000     -4.86065000     -0.01858040
  O      2.95425000     -6.13821000      0.01213300
  C     -0.72571600     -3.06788000     -4.29119000
  O     -0.82944000     -4.08938000     -5.10187000
  C     -3.36552000     -1.16712000     -4.21995000
  O     -4.20653000     -1.69222000     -5.18942000
  C      1.72061000      2.46171000     -4.46768000
  O      1.91482000      2.88749000     -5.79813000
  C      1.41486000      1.91973000      4.45909000
  O      1.80034000      2.43981000      5.56895000
  C     -1.11631000      0.50176200      4.99508000
  O     -1.52466000      0.64275100      6.21408000
  C     -0.86518100     -4.82490000     -1.09997000
  O     -1.06820000     -6.12970000     -1.48421000
  C      5.10783000      0.17188900      0.12758900
  O      6.47622000      0.27849300      0.25382600
  C     -0.39270500     -0.38521500     -4.98033000
  O     -0.49411000     -0.49908500     -6.29867000
  C      4.15319000      1.14517000     -3.15999000
  O      5.15879000      1.70386000     -3.84652000
  C     -0.30480800     -5.44291000      1.54305000
  O     -0.52109100     -6.44008000      2.30747000
  C     -2.28251000      2.32462000     -4.30313000
  O     -2.87963000      2.64088000     -5.43902000
  C      2.01469000     -3.50835000      3.07283000
  O      2.50341000     -4.32680000      3.79485000
  C      2.41274000     -1.33505000     -4.62847000
  O      3.05160000     -1.52450000     -5.76238000
  C      4.53921000     -2.75577000      1.07803000
  O      5.53774000     -3.57263000      1.05540000
  C     -5.22511000     -0.19581400     -2.90573000
  O     -6.37246000      0.32958400     -3.16946000
  C     -3.15558000     -4.23190000      1.27359000
  O     -4.06412000     -4.95830000      1.83459000
  C     -3.43372000     -3.47337000     -1.49311000
  O     -4.27557000     -4.31155000     -2.00108000
  C      4.06584000      3.53532000     -0.53463400
  O      5.22149000      4.12379000     -0.41929200
  C     -2.56428000      4.47630000      1.47515000
  O     -3.44774000      5.40686000      1.60134000
  C     -1.47222000     -2.84207000      4.07251000
  O     -1.75511000     -3.45333000      5.18914000
  C     -3.90350000      1.69196000      4.02786000
  O     -4.61015000      2.46599000      4.80062000
  C     -3.49013000      3.32803000     -1.86788000
  O     -4.39425000      4.19756000     -2.15102000
  C      1.56088000     -1.02250000      4.99057000
  O      1.89326000     -1.31380000      6.27232000
  C      2.44413000      4.54319000     -1.85845000
  O      2.85714000      5.57901000     -2.58460000
  C      4.31917000      1.87786000      2.64257000
  O      5.16100000      2.50026000      3.44098000
  C      2.11005000     -4.24556000     -2.61729000
  O      2.72028000     -4.99200000     -3.48753000
  C      1.97479000      4.37080000      1.62947000
  O      2.48029000      5.44621000      2.11929000
  C     -4.22681000     -1.14677000      3.12665000
  O     -5.09950000     -1.35243000      4.08504000
  C      4.24326000     -1.56414000     -2.05146000
  O      5.40510000     -1.98258000     -2.60895000
