110
Energy = -12259.68836480 au
 Ni      0.53131700     -3.75819000     -2.41310000
 Ni     -1.16258000     -0.67335700     -1.19812000
 Ni      1.19327000     -4.41986000     -0.18484500
 Ni     -0.72079800      3.83962000     -0.18766900
 Ni     -1.29864000      1.85843000     -1.88109000
 Ni     -2.79636000     -0.16522400      0.80899600
 Ni     -0.46200600     -1.32106000      1.18754000
 Ni     -0.02566460      3.13773000      2.23075000
 Ni      0.43982900     -1.21104000     -3.42135000
 Ni      3.36391000     -0.48070000     -1.17469000
 Ni      1.10140000     -1.84798000     -0.80279100
 Ni      2.71115000     -2.36108000     -2.83719000
 Ni      3.14739000      2.00314000     -1.93740000
 Ni      2.52359000     -0.59900000      3.40432000
 Ni      1.72636000      0.00481098      0.90007600
 Ni      2.61633000      0.21051000     -3.57192000
 Ni      0.95520000      3.27954000     -2.28174000
 Ni     -1.74052000     -2.57841000     -2.90374000
 Ni      4.07106000     -1.13862000      1.39880000
 Ni     -1.17695000     -3.43661000     -0.58179400
 Ni      3.95438000      1.27669000      0.70546900
 Ni      1.01158000      0.66041800     -1.49398000
 Ni     -1.93944000      0.05063770     -3.67360000
 Ni     -3.39280000     -2.10611000     -1.00605000
 Ni      2.42418000      1.76487000      2.66886000
 Ni      0.15268500      0.53934500      2.93003000
 Ni      3.45574000     -2.98222000     -0.44543000
 Ni     -0.36464300     -3.87174000      1.82905000
 Ni     -2.95482000      2.43522000      0.08119560
 Ni      1.59695000      2.52582000      0.22708900
 Ni     -2.21387000      1.71747000      2.57218000
 Ni     -2.09853000     -0.79504200      3.34095000
 Ni      0.36314000      1.37404000     -3.89818000
 Ni     -0.56001300      1.18826000      0.50372200
 Ni     -2.64829000     -2.78659000      1.48486000
 Ni      0.28577200     -1.97388000      3.71262000
 Ni     -3.54235000      0.53403600     -1.56820000
 Ni      1.92269000     -2.56279000      1.63760000
  C     -4.58659000     -0.71735400     -2.71883000
  O     -5.80442000     -0.90378100     -3.08587000
  C     -3.89715000      2.97586000      1.78160000
  O     -4.81458000      3.82162000      2.13992000
  C     -1.50547000      1.82800000      4.39234000
  O     -1.85420000      2.32069000      5.57471000
  C     -4.86274000      0.53388200      0.34937600
  O     -6.14550000      0.57725100      0.63803700
  C     -4.05421000      3.25892000     -1.49828000
  O     -5.08445000      3.69297000     -1.90916000
  C      4.47639000     -3.07496000      1.16615000
  O      5.50641000     -3.76789000      1.48869000
  C     -2.98495000     -2.68843000      3.67861000
  O     -4.00382000     -3.25186000      4.32023000
  C      2.24365000     -2.45849000      3.61763000
  O      2.85383000     -3.23990000      4.45603000
  C     -1.29277000     -0.81289500      5.40402000
  O     -1.64860000     -1.18077000      6.61063000
  C      1.44554000      0.47513200      5.12356000
  O      1.95743000      0.65985300      6.30073000
  C     -0.08890580     -5.26270000     -1.30436000
  O     -0.25917100     -6.46647000     -1.73691000
  C     -4.60029000     -2.72304000      0.47896800
  O     -5.82364000     -3.33470000      0.58123100
  C      0.02227040     -3.97552000      4.00343000
  O     -0.23946900     -5.00382000      4.80217000
  C      1.28004000      4.65761000      1.09895000
  O      1.77235000      5.87845000      1.32334000
  C     -4.35387000      0.56089300      3.15560000
  O     -5.14824000      0.61382900      4.16089000
  C      5.58001000      0.12673100     -0.13522500
  O      6.81987000      0.58158100      0.04277130
  C     -1.15303000      3.40124000     -3.45646000
  O     -1.68232000      4.27060000     -4.27608000
  C      0.93306200      5.42974000     -1.58011000
  O      1.24857000      6.40910000     -2.35816000
  C     -3.68256000      1.66481000     -4.23385000
  O     -4.17933000      1.82414000     -5.41395000
  C      1.91464000      2.61293000     -3.93874000
  O      2.28025000      3.23017000     -5.03568000
  C     -1.89344000     -4.51417000      0.91950300
  O     -2.40455000     -5.70268000      1.00864000
  C     -2.32637000      4.91535000     -0.77778400
  O     -2.57189000      6.16836000     -0.80447900
  C     -1.62454000      4.37898000      2.42710000
  O     -1.81645000      5.44720000      3.12737000
  C      4.42473000     -1.87476000     -1.90711000
  O      5.65037000     -1.99810000     -2.29885000
  C      4.23139000     -0.01770710      2.95205000
  O      5.25601000     -0.03829300      3.76395000
  C     -2.89171000     -3.68447000     -1.90996000
  O     -3.59311000     -4.67617000     -2.35597000
  C      0.59495300     -3.01619000     -4.09223000
  O      0.67797600     -3.70403000     -5.19718000
  C     -0.17366500      0.05051210     -5.18436000
  O     -0.19438800      0.08468400     -6.45344000
  C      2.58124000     -1.60728000     -4.60013000
  O      3.20066000     -1.81848000     -5.72526000
  C     -1.93495000     -1.76695000     -4.91875000
  O     -2.71110000     -2.36595000     -5.81341000
  C      4.31553000      1.01401000     -3.27094000
  O      5.42394000      1.50823000     -3.93177000
  C      2.69535000     -4.23806000     -1.79921000
  O      3.44444000     -5.18873000     -2.29543000
  C      4.10148000      2.96476000      1.94455000
  O      5.01052000      3.59121000      2.70703000
  C      1.17275000      3.04920000      3.96741000
  O      1.52915000      3.93588000      4.98737000
  C      3.69427000      3.59411000     -0.65332300
  O      4.60106000      4.53860000     -0.88414200
  C      2.10672000     -4.76554000      1.80739000
  O      2.35068000     -6.02918000      1.74848000
