#B3LYP/6-31+G(d) OPT FREQ

110, Energy = -11859.28984811 au

0 1
 Ni      3.27234000     -0.55765400     -2.37734000
 Ni     -0.18119600     -1.27038000     -1.24832000
 Ni      4.06812000     -0.29185700      0.06749280
 Ni     -4.25746000      0.54505300     -0.26655500
 Ni     -2.55013000     -0.53370600     -1.96528000
 Ni     -1.22011000     -2.71970000      0.59199100
 Ni      0.55821200     -0.97382700      1.18245000
 Ni     -3.47651000      0.80720600      2.15887000
 Ni      0.85990700      0.17765400     -3.10068000
 Ni      1.03260000      2.97895000     -0.80974800
 Ni      1.61934000      0.47016400     -0.66073700
 Ni      2.65902000      1.95821000     -2.53272000
 Ni     -1.33919000      3.73406000     -1.56032000
 Ni      0.72806400      1.85629000      3.50884000
 Ni     -0.01141990      1.51758000      1.04137000
 Ni      0.26440800      2.71330000     -3.26407000
 Ni     -3.14950000      1.98298000     -2.13675000
 Ni      1.44713000     -2.33112000     -2.99174000
 Ni      1.77192000      3.30815000      1.65948000
 Ni      2.18295000     -2.00792000     -0.51846000
 Ni     -0.59987200      4.04598000      0.93615500
 Ni     -0.75217500      1.22098000     -1.39084000
 Ni     -0.92707700     -1.58745000     -3.71606000
 Ni      0.39894400     -3.80398000     -1.12857000
 Ni     -1.63140000      2.58827000      2.78145000
 Ni     -1.05294000      0.07774720      2.89000000
 Ni      3.41938000      2.22934000     -0.08654920
 Ni      2.95824000     -1.73424000      1.92830000
 Ni     -3.61665000     -1.97674000     -0.13052800
 Ni     -2.38746000      2.26536000      0.32236000
 Ni     -2.85330000     -1.70484000      2.32395000
 Ni     -0.45845800     -2.46029000      3.06281000
 Ni     -1.50930000      0.93331500     -3.85191000
 Ni     -1.81278000     -0.22410000      0.45351900
 Ni      1.15974000     -3.49317000      1.34826000
 Ni      1.32669000     -0.68857900      3.64933000
 Ni     -1.98009000     -3.05272000     -1.85696000
 Ni      2.35367000      0.77083100      1.76302000
  C      0.38037100     -1.15770000      5.33229000
  O      0.61053700     -1.57959000      6.53183000
  C     -1.92024000      2.98023000     -3.84570000
  O     -2.26047000      3.51422000     -4.97056000
  C     -2.99690000      4.34287000     -0.53135400
  O     -3.52760000      5.49828000     -0.99196600
  C      1.91368000      2.43906000     -4.54067000
  O      2.25526000      3.09912000     -5.66622000
  C      3.45935000     -1.50986000      3.81788000
  O      4.45765000     -2.01238000      4.56895000
  C      0.34472800      4.61726000     -2.44706000
  O      0.26925000      5.75048000     -3.04596000
  C      5.20474000      1.05953000     -0.94205500
  O      6.43963000      1.62387000     -1.12198000
  C      0.07518880     -0.02893830     -5.14822000
  O      0.03282890      0.06103240     -6.43832000
  C      2.08988000     -1.61493000     -4.92784000
  O      2.74474000     -2.34610000     -5.76745000
  C      4.29646000      1.28708000      2.24190000
  O      5.40807000      1.62734000      2.81376000
  C      4.18495000     -2.45754000     -1.74707000
  O      5.26926000     -2.93717000     -2.41366000
  C      2.98494000      3.84373000     -1.68168000
  O      3.78944000      4.69585000     -2.21161000
  C     -1.17876000     -4.98756000     -1.60930000
  O     -1.67993000     -6.09176000     -2.14624000
  C      2.39994000      1.28039000      4.42696000
  O      2.97721000      1.64629000      5.56028000
  C     -2.34190000      4.37554000      2.01106000
  O     -2.83558000      5.31057000      2.78286000
  C      0.96341800      5.51805000      0.40871400
  O      0.70109900      6.85501000      0.59723800
  C     -4.44760000      2.31351000      0.74600700
  O     -5.62185000      2.81829000      0.88606500
  C     -0.19411000     -5.19029000      0.84541700
  O     -0.02362270     -6.47306000      1.02930000
  C     -3.78663000     -2.49256000     -2.52496000
  O     -4.69251000     -3.23976000     -3.11703000
  C     -4.74602000     -1.04409000      2.12681000
  O     -5.85245000     -1.53746000      2.74557000
  C     -2.22585000     -1.06566000      4.53464000
  O     -2.91087000     -1.40750000      5.65611000
  C      3.96425000      0.66370000     -3.79653000
  O      4.95275000      0.77647200     -4.69200000
  C     -3.32664000     -3.91523000      0.54522000
  O     -4.35046000     -4.80699000      0.64739200
  C     -2.08321000     -3.78925000      2.94283000
  O     -2.47371000     -4.77214000      3.81103000
  C     -5.24689000      1.93632000     -2.42762000
  O     -6.15165000      2.55422000     -3.24399000
  C      5.19454000     -1.78704000      1.09941000
  O      6.51072000     -1.97165000      1.12798000
  C     -3.68784000      1.77884000      3.98630000
  O     -4.73071000      2.11109000      4.66490000
  C      3.75315000      3.95092000      1.19492000
  O      4.44025000      5.09157000      1.56985000
  C      3.16794000     -3.90317000      0.67457000
  O      3.96590000     -4.98886000      0.88947600
  C      2.20608000     -4.40515000     -2.19377000
  O      2.42019000     -5.57975000     -2.75383000
  C      1.23892000     -3.68664000      3.30650000
  O      1.57195000     -4.65494000      4.14751000
  C     -5.36957000     -1.20519000     -0.87383700
  O     -6.68047000     -1.04704000     -1.00283000
  C      0.75707800      3.95003000      3.32254000
  O      1.03707000      4.90975000      4.13997000
  C     -0.93330300      1.76976000      4.66001000
  O     -1.14549000      2.19424000      5.85483000
  C     -0.64374700     -3.67177000     -4.22310000
  O     -0.87598300     -4.16741000     -5.50751000
  C     -3.30425000     -0.51057700     -4.16082000
  O     -3.96830000     -0.53947700     -5.34669000

