#B3LYP/6-31+G(d) OPT FREQ

110, Energy = -12030.28018158 au

0 1
 Ni      0.86415200     -3.13295000     -2.08130000
 Ni     -1.33753000     -0.36650400     -0.94559500
 Ni      1.72563000     -3.52666000      0.34958500
 Ni     -1.71184000      4.12579000     -0.25727900
 Ni     -1.93581000      2.03526000     -1.82113000
 Ni     -2.94152000     -0.03135380      1.02789000
 Ni     -0.50597800     -0.68810200      1.45423000
 Ni     -0.87194100      3.75482000      2.15650000
 Ni      0.25484800     -0.69572400     -2.94964000
 Ni      2.96938000      0.67976100     -0.95017300
 Ni      1.10806000     -1.04548000     -0.51696100
 Ni      2.73247000     -1.36511000     -2.52491000
 Ni      2.38627000      3.08606000     -1.83843000
 Ni      2.23004000      0.69009500      3.45736000
 Ni      1.35938000      1.00998000      1.02162000
 Ni      2.14125000      1.05447000     -3.41391000
 Ni     -0.06213540      3.73374000     -2.27421000
 Ni     -1.61413000     -2.44930000     -2.53480000
 Ni      3.83969000      0.35586000      1.46603000
 Ni     -0.75220500     -2.73821000     -0.09246550
 Ni      3.24333000      2.75666000      0.59795200
 Ni      0.52869700      1.33325000     -1.37962000
 Ni     -2.18497000     -0.05758340     -3.40603000
 Ni     -3.23311000     -2.10075000     -0.53624800
 Ni      1.62920000      3.10808000      2.57763000
 Ni     -0.27065600      1.36277000      3.03589000
 Ni      3.58456000     -1.73237000     -0.09099220
 Ni      0.08466840     -3.10957000      2.32393000
 Ni     -3.52758000      2.40122000      0.17193600
 Ni      0.77969000      3.42986000      0.18057700
 Ni     -2.69815000      2.04535000      2.60396000
 Ni     -2.13072000     -0.36708300      3.49125000
 Ni     -0.30159000      1.68642000     -3.81746000
 Ni     -1.08607000      1.69124000      0.59561600
 Ni     -2.39509000     -2.45297000      1.91487000
 Ni      0.32173400     -1.01357000      3.89799000
 Ni     -3.82682000      0.28339100     -1.39546000
 Ni      1.94522000     -1.36269000      1.87758000
  C      5.47571000     -2.20483000     -0.66240500
  O      6.55530000     -2.82660000     -0.71613900
  C      2.30340000      4.53665000     -0.34225400
  O      2.79014000      5.72821000     -0.39808400
  C      1.48677000      2.05751000      4.73626000
  O      2.01982000      2.87709000      5.69858000
  C      2.16998000     -1.31522000      4.73389000
  O      2.55264000     -1.60371000      5.97219000
  C     -2.21158000     -2.28134000     -4.69799000
  O     -2.83269000     -3.09737000     -5.48853000
  C     -0.91334200      0.26898700     -5.03584000
  O     -1.18989000      0.33682900     -6.28974000
  C     -0.49382400     -4.95061000      0.56511700
  O     -0.63090200     -6.22796000      0.67419500
  C      1.42786000      3.63837000     -3.52928000
  O      1.83523000      4.65410000     -4.21734000
  C      3.76359000     -2.47278000      2.26280000
  O      4.71340000     -3.09000000      2.89472000
  C     -5.32580000      1.25571000     -0.15630100
  O     -6.62268000      1.44617000     -0.55929000
  C      0.84591300      4.80296000      2.11296000
  O      0.82700300      5.89663000      2.79528000
  C     -4.35061000     -0.61630200      3.87921000
  O     -4.89816000     -0.74403300      5.03532000
  C      4.29598000     -0.13194000     -2.99563000
  O      5.31474000     -0.29912400     -3.84102000
  C      5.20222000      0.82997700      0.03820900
  O      6.48919000      1.00170000      0.27450300
  C      4.23654000      0.51290800      3.42692000
  O      5.26389000      0.61083900      4.27257000
  C     -2.77253000     -4.13873000     -1.19297000
  O     -3.57995000     -5.14356000     -1.42464000
  C      1.02423000     -1.89854000     -4.50480000
  O      1.26341000     -2.36366000     -5.67023000
  C     -3.46712000      3.46188000     -1.54852000
  O     -4.35661000      4.29757000     -1.95213000
  C     -0.42220600     -4.85102000     -2.56793000
  O     -0.25602300     -5.87793000     -3.30078000
  C     -4.50749000     -1.63030000     -2.36526000
  O     -5.67937000     -2.13196000     -2.69346000
  C     -1.63825000      2.73461000      4.11365000
  O     -2.09533000      3.50874000      5.03086000
  C     -4.13565000      1.17482000     -3.49387000
  O     -4.88597000      1.26322000     -4.55731000
  C      1.59224000     -4.18895000      3.19692000
  O      1.73944000     -5.30357000      3.90106000
  C     -0.40686300      5.44030000     -1.02171000
  O     -0.78403500      6.74905000     -1.38883000
  C      3.00887000     -5.09062000     -0.13325900
  O      3.51826000     -6.22587000     -0.04440100
  C     -2.78984000      4.20742000      1.77075000
  O     -3.35613000      5.36067000      1.86984000
  C     -1.62175000      3.50573000     -3.65700000
  O     -1.93011000      4.13613000     -4.77043000
  C     -4.78888000      1.74458000      2.04045000
  O     -5.75697000      2.30535000      2.80076000
  C      2.85944000     -3.34947000     -2.67273000
  O      3.62218000     -4.16608000     -3.45785000
  C      3.66505000      3.47305000      2.74390000
  O      4.69520000      4.28003000      2.79022000
  C     -1.18653000     -2.84123000      4.11941000
  O     -1.43801000     -3.47012000      5.32879000
  C      1.85435000      1.06218000     -5.54054000
  O      2.59253000      1.47639000     -6.49993000
  C     -0.73585900      0.35327500      4.95878000
  O     -0.86619700      0.46313300      6.23410000
  C     -4.63469000     -1.54284000      1.12415000
  O     -5.87912000     -1.94312000      1.42134000
  C      4.25788000      2.34221000     -1.88664000
  O      5.26663000      3.10029000     -2.38698000
  C     -3.14687000     -4.44367000      2.10683000
  O     -3.87668000     -5.24264000      2.75924000

