#B3LYP/6-31+G(d) OPT FREQ

110, Energy = -12361.36545535 au

0 1
 Ni      3.78858000     -0.80280200     -1.67636000
 Ni     -0.01268580     -1.24737000     -1.42336000
 Ni      4.04080000     -1.30808000      0.81925100
 Ni     -4.04177000      0.72683300     -0.56720900
 Ni     -2.17277000      0.02948830     -2.31779000
 Ni     -1.56695000     -3.16149000     -0.28953600
 Ni      0.22758100     -1.75515000      1.11869000
 Ni     -3.81445000      0.20552500      1.97882000
 Ni      1.60345000      0.55244100     -2.61950000
 Ni      1.47304000      2.63498000      0.54471300
 Ni      1.78805000      0.01065220     -0.01250560
 Ni      3.39072000      1.86051000     -1.13676000
 Ni     -0.71707800      3.83027000     -0.31455900
 Ni      0.16172600      0.39494000      4.11155000
 Ni     -0.09644550      0.74642700      1.62546000
 Ni      1.13775000      3.15180000     -2.13216000
 Ni     -2.62104000      2.53484000     -1.80302000
 Ni      1.87319000     -1.99160000     -3.09175000
 Ni      1.66779000      1.98762000      3.06918000
 Ni      2.10596000     -2.44759000     -0.52637600
 Ni     -0.43755600      3.32151000      2.38803000
 Ni     -0.33290500      1.25382000     -0.90055000
 Ni     -0.23030200     -0.72235600     -4.06138000
 Ni      0.30130300     -3.85011000     -1.87411000
 Ni     -1.96804000      1.49308000      3.34687000
 Ni     -1.65326000     -1.09046000      2.87211000
 Ni      3.69794000      1.24414000      1.44788000
 Ni      2.33383000     -3.03091000      1.91248000
 Ni     -3.67253000     -1.79041000     -1.13109000
 Ni     -2.34711000      2.02008000      0.72351700
 Ni     -3.39645000     -2.27712000      1.45588000
 Ni     -1.23928000     -3.58540000      2.22584000
 Ni     -0.65218100      1.79408000     -3.56054000
 Ni     -1.87218000     -0.53201300      0.23270700
 Ni      0.60648900     -4.28964000      0.54772500
 Ni      0.60074500     -2.29957000      3.73591000
 Ni     -1.79231000     -2.52100000     -2.78513000
 Ni      2.25299000     -0.63935300      2.64719000
  C      3.88519000     -2.71747000     -2.70315000
  O      4.80092000     -3.36241000     -3.43902000
  C      3.57679000     -3.95168000      0.71414700
  O      4.39187000     -5.01781000      0.63494300
  C      2.84073000      3.97189000      0.39896900
  O      3.38110000      5.12464000      0.70638500
  C      0.64647900      5.05482000     -1.21911000
  O      0.68650500      6.34431000     -1.59797000
  C     -1.44824000      0.33399800      5.22202000
  O     -1.67767000      0.39186000      6.55254000
  C      2.09998000     -4.70630000     -1.72086000
  O      2.39810000     -5.95804000     -2.05686000
  C      4.71009000      0.67071300     -2.57667000
  O      5.87264000      0.81804400     -3.22253000
  C     -5.19145000     -1.46872000      0.93664900
  O     -6.39095000     -2.00930000      1.30940000
  C      5.06384000      2.02806000      0.20198700
  O      6.31345000      2.51456000      0.25156100
  C     -4.88639000      1.77072000      1.91498000
  O     -6.06652000      2.05388000      2.40642000
  C     -2.15758000      4.32296000     -2.24341000
  O     -2.71913000      5.33651000     -2.88074000
  C     -3.10886000     -4.07310000      2.29089000
  O     -3.79885000     -5.03398000      2.96164000
  C      0.27672300      2.83151000      4.12517000
  O      0.48514800      3.54975000      5.15823000
  C     -3.68700000     -3.75600000     -1.13156000
  O     -4.55442000     -4.71621000     -1.49076000
  C      0.60972400     -4.75535000      2.72780000
  O      0.78960700     -6.07794000      3.08468000
  C      1.93499000      0.02541570      4.84974000
  O      2.55826000     -0.07521870      6.04959000
  C     -2.65142000      3.19238000      3.86516000
  O     -3.36105000      3.79025000      4.76901000
  C     -2.95305000      1.58392000     -3.88822000
  O     -3.87331000      1.81093000     -4.86453000
  C      5.61646000     -1.43638000     -0.36990700
  O      6.86221000     -1.87144000     -0.37232800
  C     -0.81506000      0.30595400     -5.57416000
  O     -0.91771900      0.26863100     -6.87717000
  C     -0.86502300     -3.04832000      4.72348000
  O     -0.99584400     -3.64365000      5.89580000
  C     -2.44317000      4.28329000      0.88627600
  O     -3.31139000      5.28676000      1.07792000
  C      1.01965000     -2.35184000     -4.90628000
  O      1.28940000     -2.98513000     -6.04396000
  C      3.08429000      3.35351000     -2.49639000
  O      3.85117000      4.23986000     -3.18844000
  C      3.51136000      2.54182000      3.04712000
  O      4.36609000      3.17796000      3.89517000
  C     -5.08398000     -0.71066000     -2.07701000
  O     -6.35746000     -0.79516800     -2.44025000
  C     -0.98626100     -4.96235000     -0.23048100
  O     -1.55579000     -6.11479000     -0.34477900
  C     -3.43725000     -0.87715700      3.46152000
  O     -4.05488000     -1.21616000      4.54025000
  C      4.22050000     -0.30071300      2.43402000
  O      5.18527000     -0.39732100      3.29853000
  C      2.45465000     -2.63972000      3.81368000
  O      3.26712000     -3.22469000      4.63910000
  C      2.08866000      0.54805000     -4.49302000
  O      2.87480000      0.87149500     -5.47954000
  C     -3.04007000     -1.57862000     -3.92124000
  O     -3.83243000     -1.77693000     -4.97962000
  C      0.27166900      5.04894000      1.92844000
  O      0.25281400      6.22371000      2.48960000
  C      0.12862400      3.53482000     -4.16965000
  O      0.25599300      4.21372000     -5.29959000
  C     -4.28516000      2.53687000     -0.94471200
  O     -5.37503000      3.19678000     -1.07219000
  C     -0.98267800     -4.34336000     -3.39823000
  O     -1.22774000     -5.33630000     -4.26899000

