110
Energy = -12649.33022046 au
 Ni     -0.51339000     -3.21524000     -2.52802000
 Ni     -1.94935000      0.10811700     -1.25706000
 Ni      0.20700200     -3.79881000     -0.08595870
 Ni     -1.14284000      4.45303000     -0.43967700
 Ni     -2.04447000      2.79148000     -2.15435000
 Ni     -3.67564000      0.78087500      0.75685800
 Ni     -1.24739000     -0.48853300      1.15592000
 Ni     -0.23708600      3.96911000      1.93272000
 Ni     -0.39618200     -0.79021600     -3.39323000
 Ni      2.76486000     -0.01983140     -1.49632000
 Ni      0.27894200     -1.23704000     -0.89161600
 Ni      1.72551000     -1.97262000     -3.06813000
 Ni      2.62138000      2.48629000     -2.15037000
 Ni      1.88240000      0.07291030      3.17266000
 Ni      1.07851000      0.65966200      0.71183800
 Ni      1.75770000      0.70497800     -3.85226000
 Ni      0.40365700      3.75321000     -2.61719000
 Ni     -2.71416000     -1.76140000     -2.85843000
 Ni      3.42284000     -0.61712100      1.07246000
 Ni     -1.97682000     -2.39086000     -0.46842500
 Ni      3.44900000      2.03681000      0.38443400
 Ni      0.30761900      1.25198000     -1.70958000
 Ni     -2.69597000      0.66035900     -3.67790000
 Ni     -4.18198000     -1.17183000     -0.88218000
 Ni      1.85360000      2.56885000      2.35001000
 Ni     -0.41468400      1.47647000      2.93127000
 Ni      2.57633000     -2.52573000     -0.59379300
 Ni     -1.29521000     -3.07364000      2.02663000
 Ni     -3.41194000      3.12039000     -0.04073330
 Ni      1.30713000      3.38353000     -0.03314620
 Ni     -2.62134000      2.73400000      2.32194000
 Ni     -2.80229000      0.34446500      3.26705000
 Ni     -0.55272800      1.83542000     -4.11977000
 Ni     -1.13662000      1.95407000      0.32928600
 Ni     -3.55429000     -1.63286000      1.60545000
 Ni     -0.54412000     -1.13572000      3.62237000
 Ni     -4.23176000      1.29393000     -1.72401000
 Ni      0.99277900     -1.87240000      1.57802000
  C      1.95217000      2.16868000      4.20886000
  O      2.48793000      2.75378000      5.29696000
  C      0.49381900     -2.96046000     -4.08450000
  O      0.60763300     -3.72016000     -5.12089000
  C     -4.25377000      1.82569000      2.20400000
  O     -5.43480000      2.22051000      2.55588000
  C      2.54074000     -3.43267000      2.53378000
  O      2.88058000     -4.34776000      3.37472000
  C     -2.42592000     -3.66131000     -3.30169000
  O     -2.93828000     -4.43423000     -4.29481000
  C      2.93409000     -1.10238000      4.19429000
  O      3.51787000     -1.23055000      5.32864000
  C     -5.21950000      0.53420500     -0.31792700
  O     -6.50749000      0.67127500     -0.24346000
  C      4.62584000     -0.73761300     -1.01766000
  O      5.85338000     -0.82560800     -1.51588000
  C     -1.56398000     -0.30454400     -5.12990000
  O     -1.65484000     -0.64361700     -6.45809000
  C     -2.34014000      2.48594000     -4.10402000
  O     -2.98814000      3.25247000     -4.92504000
  C     -4.35291000     -0.40994200     -2.96192000
  O     -5.34285000     -0.55853900     -3.79170000
  C      0.08495040     -4.76669000      1.59618000
  O      0.14574000     -6.07087000      1.93755000
  C     -2.34239000      4.47417000      1.22523000
  O     -2.96789000      5.56538000      1.55715000
  C      0.26650100      4.25668000      3.73949000
  O      0.24341100      5.39333000      4.39388000
  C      0.08113980      0.08212000      4.98240000
  O      0.03144040      0.17580400      6.32253000
  C     -1.84409000     -4.56678000     -0.63332300
  O     -2.57063000     -5.67407000     -0.81198200
  C      3.53610000     -2.46193000     -2.98950000
  O      4.34866000     -3.08475000     -3.82071000
  C      0.46143700      5.03379000      0.35937400
  O      0.86974500      6.25831000      0.21331100
  C      2.82723000      3.70603000      1.22368000
  O      3.46942000      4.76982000      1.59735000
  C     -4.35922000     -3.10914000     -0.42748900
  O     -5.44723000     -3.72584000     -0.92108000
  C      3.44038000      1.27030000     -3.29846000
  O      4.48864000      1.48299000     -4.02469000
  C      4.78161000     -1.83235000      1.51750000
  O      5.93809000     -2.05254000      2.01115000
  C     -2.00922000      1.99796000      3.95380000
  O     -2.19678000      2.60235000      5.08692000
  C     -2.72478000     -1.21033000      4.45989000
  O     -3.34787000     -1.47954000      5.61425000
  C      4.85768000      2.37415000     -0.84441100
  O      6.02324000      2.97119000     -0.80144500
  C     -5.13230000     -0.59624800      2.34482000
  O     -6.32229000     -1.06910000      2.68435000
  C      4.16780000      1.22598000      2.30190000
  O      5.34237000      1.50037000      2.93032000
  C      2.39070000      4.49486000     -2.06289000
  O      3.09352000      5.54734000     -2.59940000
  C      0.97250100     -4.66976000     -1.73738000
  O      1.17604000     -5.96867000     -2.07166000
  C     -1.33315000      4.58714000     -2.35430000
  O     -1.78669000      5.58636000     -3.04614000
  C      1.72019000     -0.81131400     -5.12136000
  O      2.13315000     -1.03474000     -6.37959000
  C     -3.18882000     -3.64828000      2.30449000
  O     -3.82323000     -4.63764000      2.95625000
  C      3.56916000     -4.14349000     -0.15677200
  O      4.45875000     -5.02230000     -0.35228200
  C     -3.94402000      3.14285000     -1.95223000
  O     -4.73514000      4.10986000     -2.30134000
  C     -0.23215600     -3.00964000      4.05381000
  O     -0.27233200     -3.73345000      5.18414000
  C      1.12002000      2.81825000     -4.24163000
  O      1.43249000      3.42714000     -5.34322000
