#B3LYP/6-31+G(d) OPT FREQ

110, Energy = -12080.87358080 au

0 1
 Ni     -1.12860000      0.27875000     -4.11090000
 Ni      1.02468000     -0.51387500     -1.17385000
 Ni     -2.17002000      2.26860000     -2.86480000
 Ni      1.30630000     -2.95569000      2.69414000
 Ni      1.69484000     -2.65175000      0.08670170
 Ni      2.45787000      0.86283600      0.45413600
 Ni     -0.01875990      1.43652000      0.11252900
 Ni      0.28849000     -0.94033100      3.95145000
 Ni     -0.41011000     -1.92608000     -2.87318000
 Ni     -3.30482000     -1.52140000     -0.65908200
 Ni     -1.45193000      0.07978240     -1.53607000
 Ni     -2.90872000     -1.30707000     -3.18289000
 Ni     -2.61031000     -3.70672000      0.60171800
 Ni     -2.93413000      1.82159000      2.33427000
 Ni     -1.83266000     -0.13668900      1.01055000
 Ni     -2.19813000     -3.52594000     -1.92380000
 Ni     -0.11904100     -4.27010000      1.01085000
 Ni      1.42460000     -0.33476300     -3.76508000
 Ni     -4.33369000      0.44674700      0.70307100
 Ni      0.35564400      1.65954000     -2.45280000
 Ni     -3.69401000     -1.69769000      1.92543000
 Ni     -0.78747800     -2.09102000     -0.27858600
 Ni      2.09497000     -2.48115000     -2.50305000
 Ni      2.87878000      1.08636000     -2.12311000
 Ni     -2.24862000     -0.31072500      3.58565000
 Ni     -0.41353000      1.24356000      2.68247000
 Ni     -3.93776000      0.64369600     -1.92175000
 Ni     -0.69985100      3.64162000     -1.17041000
 Ni      3.15575000     -1.31679000      1.74776000
 Ni     -1.14699000     -2.32403000      2.27844000
 Ni      2.12484000      0.70092700      3.05455000
 Ni      1.42721000      2.86464000      1.77672000
 Ni      0.22304400     -4.07629000     -1.57663000
 Ni      0.64930200     -0.72800100      1.37043000
 Ni      1.82171000      3.05924000     -0.80581000
 Ni     -1.07056000      3.43381000      1.40464000
 Ni      3.56492000     -1.10646000     -0.83508500
 Ni     -2.54640000      2.03352000     -0.24728200
  C      4.99742000      1.16667000      1.10012000
  O      6.17686000      1.57535000      1.41688000
  C      1.23207000     -2.56552000     -4.23981000
  O      1.49076000     -3.12734000     -5.36808000
  C      4.52523000     -2.44557000      0.62458200
  O      5.67260000     -3.11213000      0.66816100
  C      0.15636300      5.00996000      1.18888000
  O      0.10500700      6.28956000      1.50548000
  C     -1.45884000     -5.15832000     -0.37920300
  O     -1.48796000     -6.40486000     -0.02758580
  C     -4.43823000     -3.15550000     -0.95090700
  O     -4.80470000     -4.23687000     -1.55998000
  C      2.50546000     -4.38572000      1.45211000
  O      3.03156000     -5.35951000      2.21103000
  C     -4.24112000     -0.13092400      3.06669000
  O     -5.23488000     -0.30695800      3.87660000
  C     -5.15262000     -1.60180000     -0.11554500
  O     -6.41868000     -1.47605000      0.06583860
  C      1.62383000      2.90032000     -3.86705000
  O      1.93556000      3.55100000     -4.83258000
  C     -2.71964000      1.30348000     -4.55294000
  O     -3.36045000      1.60648000     -5.62971000
  C      0.55297100      3.31474000      3.79529000
  O      0.65724100      4.20392000      4.70612000
  C     -4.29210000      2.57442000     -1.73669000
  O     -5.42317000      3.00406000     -2.24775000
  C      4.94070000      0.13520600     -1.53273000
  O      6.22184000      0.04117410     -1.90951000
  C      3.52270000      2.06898000      3.72555000
  O      4.19798000      2.47614000      4.72348000
  C      3.99773000     -0.88982300      3.68450000
  O      5.09400000     -1.28664000      4.22786000
  C     -0.46064100     -4.23151000      3.09934000
  O     -0.74449900     -5.24733000      3.83447000
  C      4.20883000     -2.60272000     -2.41106000
  O      4.95336000     -3.34884000     -3.21253000
  C     -3.71815000     -3.66089000      2.44169000
  O     -4.73747000     -4.52874000      2.68921000
  C     -1.76436000     -2.05408000     -4.62757000
  O     -2.33704000     -2.64415000     -5.61640000
  C     -4.78580000     -0.83521700     -2.92093000
  O     -5.85281000     -1.08839000     -3.59216000
  C      0.83854000      0.69038100      5.09938000
  O      0.95434600      0.77134900      6.29754000
  C      3.01382000      3.89639000      1.13350000
  O      3.76260000      4.92310000      1.48708000
  C     -2.40754000      4.47771000     -0.57255100
  O     -3.12681000      5.60244000     -0.70332900
  C      1.08483000      4.83141000     -1.38259000
  O      1.44820000      6.03059000     -1.86119000
  C     -4.46340000      2.39479000      1.24069000
  O     -5.67912000      2.74428000      1.48693000
  C      3.29973000      0.31018700     -4.15675000
  O      4.12838000      0.36949600     -5.17589000
  C     -2.07265000      1.47165000      4.31234000
  O     -2.53122000      1.86946000      5.44648000
  C      0.44954400      0.39854800     -5.29855000
  O      0.49658200      0.45523700     -6.68095000
  C     -2.64650000      3.85538000      2.55604000
  O     -3.28578000      4.83077000      3.24886000
  C     -1.12731000      3.94376000     -3.18837000
  O     -1.53356000      4.88032000     -4.09252000
  C     -1.75077000     -2.21888000      4.77405000
  O     -2.11420000     -2.56258000      5.97741000
  C     -0.87636800     -4.34691000     -3.12860000
  O     -0.94133400     -5.48533000     -3.72834000
  C      3.84650000      3.09420000     -1.70728000
  O      4.86419000      3.78865000     -2.14987000
  C      2.38989000     -4.53268000     -0.96633500
  O      2.63293000     -5.81560000     -1.26205000
  C      1.80813000     -2.33361000      4.67425000
  O      2.17027000     -2.99979000      5.78197000

