#B3LYP/6-31+G(d) OPT FREQ

110, Energy = -12141.71752316 au

0 1
 Ni      1.42949000     -3.63636000      2.18913000
 Ni      1.26925000     -1.22059000     -0.73095000
 Ni     -1.07879000     -3.81704000      2.12221000
 Ni      0.99668500      3.31442000     -2.10712000
 Ni      2.41983000      1.16957000     -1.45378000
 Ni     -0.13817900     -1.12883000     -3.03644000
 Ni     -1.34283000     -1.47551000     -0.72173400
 Ni     -1.75976000      2.91374000     -2.09708000
 Ni      2.72409000     -1.35527000      1.58032000
 Ni     -0.15779700      0.48041500      3.34315000
 Ni     -0.00493910     -1.52055000      1.56973000
 Ni      1.44541000     -1.66619000      3.96021000
 Ni      0.97955200      2.81235000      2.53672000
 Ni     -4.15178000      0.37086900      0.94188900
 Ni     -1.49514000      0.53938400      0.95032600
 Ni      2.51904000      0.70702400      3.35443000
 Ni      2.26562000      3.18288000      0.28406000
 Ni      2.79860000     -3.36597000     -0.23195900
 Ni     -2.79806000      0.11224100      3.25966000
 Ni      0.12999700     -3.53777000     -0.14383200
 Ni     -1.76144000      2.44246000      2.69475000
 Ni      1.13295000      0.75864500      0.93082300
 Ni      3.92170000     -0.95696700     -0.84799400
 Ni      1.41900000     -3.29180000     -2.39730000
 Ni     -2.99911000      2.66917000      0.26974500
 Ni     -2.82446000      0.61805300     -1.36418000
 Ni     -1.10152000     -1.89433000      3.94518000
 Ni     -2.49588000     -3.82897000     -0.06487090
 Ni      1.14130000      1.28123000     -3.74259000
 Ni     -0.35971700      2.82894000      0.30115100
 Ni     -1.58626000      0.91546600     -3.82764000
 Ni     -2.71422000     -1.55277000     -3.14062000
 Ni      3.75729000      1.11048000      0.93975400
 Ni     -0.22074100      0.86923400     -1.38915000
 Ni     -1.26846000     -3.56455000     -2.47233000
 Ni     -3.93829000     -1.68162000     -0.71749300
 Ni      2.49160000     -0.88523900     -3.08750000
 Ni     -2.73471000     -1.80574000      1.64380000
  C      2.32601000     -4.99989000      0.77217300
  O      2.91531000     -6.22946000      0.81387700
  C      1.11598000     -2.36499000     -4.46580000
  O      1.08984000     -2.79110000     -5.74393000
  C     -4.65240000     -0.83565500     -2.75134000
  O     -5.87982000     -1.22542000     -3.14790000
  C      4.76703000     -2.72249000     -0.08959500
  O      5.95530000     -3.33881000     -0.30172600
  C     -1.04364000      0.05256010     -5.43800000
  O     -1.51578000      0.04364140     -6.64930000
  C      1.06212000      2.33475000      4.49543000
  O      1.24376000      2.95143000      5.68114000
  C     -3.88372000     -3.60079000     -1.75440000
  O     -4.70048000     -4.70700000     -1.84124000
  C      1.70304000      4.61109000      1.89548000
  O      2.15638000      5.72643000      2.47058000
  C      3.37410000     -0.29317500      4.78417000
  O      3.88901000     -0.14649400      5.97913000
  C     -0.84527900      5.94416000      1.08357000
  O     -0.93832000      7.16124000      0.67618200
  C      0.04108920     -3.83890000      3.55776000
  O      0.07234720     -4.85309000      4.36441000
  C     -3.20096000      1.93999000     -4.09304000
  O     -4.26789000      2.11556000     -4.82769000
  C     -2.47192000     -2.78267000     -4.60594000
  O     -3.21276000     -3.35944000     -5.51740000
  C     -4.49680000      1.06241000      2.86664000
  O     -5.53708000      1.57967000      3.57139000
  C     -4.93959000      1.83806000     -0.50373900
  O     -6.19304000      2.21066000     -0.80944300
  C     -5.50001000     -1.11621000      0.70961000
  O     -6.64957000     -1.54839000      1.24759000
  C      5.55287000     -0.31339700      1.87018000
  O      6.49071000     -0.56126900      2.71743000
  C      2.96591000      2.43341000     -3.34787000
  O      4.01467000      2.98393000     -3.97677000
  C     -0.27217600      3.08297000     -4.07635000
  O     -0.30102400      3.90216000     -5.18531000
  C     -3.07783000     -3.76231000      1.78170000
  O     -3.90907000     -4.55410000      2.40084000
  C      1.16212000      5.17265000     -1.78052000
  O      1.50383000      6.16435000     -2.52029000
  C      1.69178000      0.40413100     -5.41041000
  O      2.30392000      0.76354600     -6.48949000
  C     -1.45330000     -5.52082000      0.43192800
  O     -1.45086000     -6.85492000      0.38765700
  C     -3.65785000      4.05627000      1.48023000
  O     -4.51337000      5.01868000      1.40584000
  C      4.08041000      3.63578000     -0.26749800
  O      4.79527000      4.71161000     -0.27869000
  C      0.34605700     -1.40005000      5.80023000
  O      0.43252000     -1.93984000      6.99237000
  C      2.98721000     -4.45046000     -2.39170000
  O      3.68929000     -5.26820000     -3.13970000
  C      2.83178000     -2.88658000      3.12800000
  O      3.78120000     -3.60756000      3.76255000
  C     -1.59813000      4.14553000      3.89571000
  O     -2.13205000      5.16042000      4.42842000
  C     -1.68050000      1.16169000      4.30564000
  O     -1.84294000      1.36527000      5.57626000
  C      4.49515000     -0.88563900     -3.10679000
  O      5.48818000     -1.12905000     -3.94369000
  C      5.05597000      0.92168600     -0.66632800
  O      6.36657000      1.20769000     -0.84952200
  C     -0.72793000     -5.38556000     -2.50152000
  O     -0.73501700     -6.35863000     -3.34877000
  C      3.86228000      2.29196000      2.65604000
  O      4.93446000      2.85280000      3.27245000
  C     -2.82117000      4.48813000     -1.85713000
  O     -3.29597000      5.39639000     -2.64430000
  C     -3.13231000     -2.12157000      4.21108000
  O     -3.96684000     -2.48684000      5.18985000

