110
Energy = -11926.26841294 au
 Ni     -3.30714000     -2.08986000     -0.91917200
 Ni     -1.36657000      0.44779500      1.07266000
 Ni     -1.06454000     -3.45664000     -1.47004000
 Ni      0.84805100      4.41669000      0.85269200
 Ni     -1.33133000      3.03021000      1.27057000
 Ni      0.47973700      0.25947100      2.91774000
 Ni      0.80813700     -0.82180300      0.57062600
 Ni      3.03372000      3.07727000      0.45718300
 Ni     -3.30573000      0.53185500     -0.66127400
 Ni     -0.79501400      0.74040800     -3.34832000
 Ni     -1.05927000     -0.70839600     -1.21270000
 Ni     -2.92477000     -0.49634000     -3.09137000
 Ni     -0.72173400      3.35918000     -3.08409000
 Ni      3.38662000     -0.66368300     -2.09375000
 Ni      1.13427000      0.62244600     -1.53940000
 Ni     -2.89332000      2.01717000     -2.87656000
 Ni     -0.96149300      4.49272000     -0.89002900
 Ni     -3.67795000     -0.84439200      1.37254000
 Ni      1.47468000     -0.52899000     -3.85863000
 Ni     -1.40731000     -2.13510000      0.88899900
 Ni      1.50557000      2.10043000     -3.68873000
 Ni     -1.04338000      1.88379000     -1.03186000
 Ni     -3.62535000      1.66713000      1.62994000
 Ni     -1.70438000     -1.04916000      3.30980000
 Ni      3.37490000      1.91927000     -1.90331000
 Ni      3.02030000      0.49409400      0.24573100
 Ni     -0.64698600     -1.84273000     -3.48501000
 Ni      0.85436100     -3.58204000      0.37812500
 Ni      0.52385900      2.92632000      3.04378000
 Ni      1.17824000      3.30473000     -1.37878000
 Ni      2.73891000      1.60945000      2.55042000
 Ni      2.73558000     -1.03677000      2.45236000
 Ni     -3.20395000      3.16476000     -0.56745200
 Ni      0.82244800      1.77509000      0.74498500
 Ni      0.52193200     -2.37909000      2.87404000
 Ni      3.06359000     -2.23580000      0.03129960
 Ni     -1.77357000      1.56213000      3.46631000
 Ni      1.14943000     -2.04701000     -1.72382000
  C      1.99593000      1.78235000      4.36240000
  O      2.55802000      2.23931000      5.52378000
  C      4.59220000      2.12217000      2.09705000
  O      5.67733000      2.63555000      2.65073000
  C     -3.79884000     -1.09835000      3.40971000
  O     -4.75338000     -1.38084000      4.31734000
  C     -4.03815000      3.72645000      1.49915000
  O     -5.00916000      4.59848000      1.16665000
  C     -1.43129000     -2.93848000      4.16488000
  O     -1.72426000     -3.53704000      5.29236000
  C     -2.18441000     -2.64937000     -5.23849000
  O     -2.64135000     -3.14221000     -4.12657000
  C      5.22682000      1.33414000     -1.12942000
  O      6.23588000      1.84186000     -1.79142000
  C      0.65491300      5.33872000     -1.29843000
  O      0.82399300      6.52852000     -1.76452000
  C      2.71533000     -4.02342000     -1.30854000
  O      3.39942000     -5.01159000     -1.81641000
  C      4.11496000     -0.68371700      3.68033000
  O      5.06959000     -1.06707000      4.43177000
  C     -3.01762000     -4.27843000     -1.33821000
  O     -3.66083000     -5.36992000     -1.71207000
  C     -1.34961000      3.42875000      4.12289000
  O     -1.43893000      4.31273000      5.13444000
  C     -3.57844000      2.12200000      3.46250000
  O     -4.50767000      2.68050000      4.29588000
  C     -2.62473000      4.16083000     -2.24705000
  O     -3.20575000      5.17693000     -2.80177000
  C     -1.18810000      0.30251500      5.16401000
  O     -1.55484000      0.44973800      6.42535000
  C      3.30661000      0.71979700     -4.33928000
  O      3.98003000      0.78544300     -5.50995000
  C     -4.59694000     -1.39529000     -2.31639000
  O     -5.75317000     -1.85243000     -2.88707000
  C      5.33814000     -0.91118000      0.68403800
  O      6.62516000     -0.97327300      0.72822200
  C      1.76939000      4.32693000      2.72754000
  O      2.36219000      5.75932000      3.22599000
  C     -0.09972650     -4.56009000     -2.87243000
  O     -0.13867900     -5.70156000     -3.45895000
  C      0.38326000     -5.42724000      0.56789200
  O      0.63227300     -6.66853000      0.57315300
  C     -2.01138000     -4.33689000      1.67722000
  O     -2.56848000     -5.37224000      2.20125000
  C     -4.42787000     -2.78486000      0.63823300
  O     -5.59281000     -3.39967000      0.88721600
  C     -4.91841000      1.95725000     -1.65705000
  O     -6.01586000      2.21531000     -2.37882000
  C      4.00937000      4.11241000     -1.02277000
  O      4.67969000      5.21214000     -0.73634300
  C      1.46092000     -4.05807000      3.23768000
  O      1.77959000     -4.98441000      4.04626000
  C      2.66070000      3.65741000     -3.83089000
  O      3.26437000      4.51027000     -4.60380000
  C     -2.86152000      0.86255100     -4.36903000
  O     -3.49070000      1.03625000     -5.48518000
  C      3.73972000     -3.35476000      1.53242000
  O      4.66443000     -4.25023000      1.69170000
  C      4.44610000     -2.19040000     -2.56346000
  O      5.59969000     -2.36646000     -3.10864000
  C     -1.93260000      4.92117000      1.49831000
  O     -1.85105000      6.21932000      1.64832000
  C     -0.69090300      2.78324000     -5.05242000
  O     -0.81662200      3.76405000     -5.93714000
  C     -0.07580620     -0.11286400     -5.37817000
  O     -0.14126600     -0.06673510     -6.70685000
  C     -4.96836000      0.32158400      0.76401700
  O     -6.24672000      0.43078800      0.88752500
  C      1.32065000     -1.33074000      4.71384000
  O      1.58933000     -1.56832000      5.96136000
  C      1.86103000     -2.43894000     -4.20594000
  O      2.22914000     -3.12095000     -5.28103000
