110
Energy = -12662.24677341 au
 Ni      3.75673000     -2.25446000     -0.71316300
 Ni      0.15309200     -1.16993000     -1.74748000
 Ni      2.88760000     -3.05742000      1.53740000
 Ni     -2.91602000      2.44101000     -1.84277000
 Ni     -1.08972000      1.08285000     -3.41527000
 Ni     -2.55715000     -2.07053000     -1.59744000
 Ni     -0.69784800     -1.87748000      0.59346000
 Ni     -3.56180000      1.72920000      0.57040500
 Ni      2.82651000     -0.21068500     -2.16993000
 Ni      2.29485000      1.49782000      1.20625000
 Ni      1.72396000     -0.92961100      0.34255600
 Ni      4.19318000      0.19458900      0.21926700
 Ni      1.29341000      3.68406000      0.09620060
 Ni     -0.95041500      0.04466360      3.96143000
 Ni     -0.13164300      0.56302400      1.51281000
 Ni      3.17880000      2.14665000     -1.19619000
 Ni     -0.37420100      3.52860000     -2.07416000
 Ni      2.08223000     -2.65759000     -2.88193000
 Ni      1.49372000      0.93573500      3.73293000
 Ni      1.52654000     -3.62031000     -0.58378000
 Ni      0.37937200      2.94764000      2.48750000
 Ni      0.71833400      1.23509000     -0.92445300
 Ni      1.01215000     -0.57564100     -4.07969000
 Ni     -0.41859900     -3.51615000     -2.72291000
 Ni     -2.04969000      2.02953000      2.67746000
 Ni     -2.57421000     -0.35741000      1.81621000
 Ni      3.23821000     -0.71694400      2.53813000
 Ni      0.31804900     -4.06776000      1.91498000
 Ni     -3.26727000     -0.19757500     -2.87193000
 Ni     -1.12185000      2.77471000      0.23958100
 Ni     -4.10423000     -0.75738800     -0.29595500
 Ni     -3.06574000     -2.85152000      0.84323100
 Ni      1.54960000      2.02949000     -3.26359000
 Ni     -1.72017000      0.28928700     -0.66994800
 Ni     -1.19667000     -4.33550000     -0.49240700
 Ni     -1.49074000     -2.49848000      3.03907000
 Ni     -1.34957000     -1.50305000     -3.86828000
 Ni      0.82912300     -1.55377000      2.87432000
  C     -0.24660700     -1.54505000      4.99628000
  O      0.02814980     -1.91859000      6.26729000
  C     -2.28857000      4.25342000     -2.23879000
  O     -2.84825000      5.31865000     -2.84564000
  C      4.56036000     -0.76039600     -1.40541000
  O      5.71177000     -0.76528800     -2.00940000
  C      2.89350000      1.12555000     -4.26027000
  O      3.82751000      1.34769000     -5.22549000
  C     -1.67187000     -5.24552000      1.15524000
  O     -1.90564000     -6.55228000      1.32564000
  C      0.32414100      1.58059000      5.08984000
  O      0.48097700      2.05138000      6.34340000
  C     -3.41570000     -2.61377000      2.97631000
  O     -4.40886000     -2.92409000      3.88427000
  C     -2.87755000      1.57625000     -3.60071000
  O     -3.54058000      2.00797000     -4.62693000
  C     -0.13358300      2.63533000     -3.85200000
  O     -0.36694000      3.28873000     -4.95300000
  C     -4.70591000     -1.01455000     -2.03375000
  O     -5.84437000     -1.30025000     -2.53891000
  C      3.20006000      3.91620000      0.28586900
  O      3.98874000      4.97089000      0.59028500
  C     -1.36829000      3.31994000      3.92119000
  O     -1.80869000      4.12373000      4.88858000
  C     -2.79882000      0.38396900      4.32822000
  O     -3.68829000      0.37237500      5.33266000
  C      2.62821000      2.68390000      3.26216000
  O      3.63352000      3.42503000      3.78130000
  C     -2.55917000      3.96022000      0.99767600
  O     -2.84491000      5.28018000      0.97852200
  C     -4.64939000      2.04266000     -1.04172000
  O     -5.88709000      2.62968000     -1.17345000
  C      2.19547000      3.84416000     -2.60285000
  O      2.71726000      4.91831000     -3.25148000
  C     -4.58274000     -3.29517000     -0.24157500
  O     -5.52504000     -4.21089000     -0.33254600
  C      0.33022900     -2.81817000     -4.37071000
  O      0.40699100     -3.46321000     -5.48973000
  C      3.17112000     -0.15230600      4.38901000
  O      4.01279000      0.04866120      5.43779000
  C     -2.19612000     -3.86864000     -2.14577000
  O     -3.02950000     -4.57180000     -2.85404000
  C      1.88271000     -4.61992000      1.03123000
  O      2.44301000     -5.79365000      1.02919000
  C     -4.17339000      2.20635000      2.38663000
  O     -5.20482000      2.80876000      2.99243000
  C      5.00832000      0.96209600      1.70434000
  O      6.16891000      1.43956000      2.11658000
  C      0.43022800     -4.84218000     -1.51617000
  O      0.94466000     -5.95280000     -1.95224000
  C     -3.18307000     -1.54910000     -4.45087000
  O     -3.86719000     -1.66141000     -5.62660000
  C      0.22943200      5.03971000     -0.90865200
  O      0.25309300      6.41120000     -0.97967600
  C     -5.06167000     -0.35171300      1.33467000
  O     -6.22188000     -0.59441400      1.96532000
  C      3.15567000     -1.68577000     -4.31865000
  O      4.07196000     -1.93784000     -5.25654000
  C      4.45284000     -2.05906000      1.25121000
  O      5.64013000     -2.41779000      1.63228000
  C      0.64355800      4.79039000      2.07180000
  O      0.79378200      5.94614000      2.71177000
  C     -0.44408300     -4.30871000      3.62549000
  O     -0.73193600     -5.39934000      4.38254000
  C      3.36680000     -3.81849000     -1.60898000
  O      4.08220000     -4.87387000     -1.77814000
  C      2.23995000     -2.76048000      3.24136000
  O      2.55173000     -3.35082000      4.34983000
  C      4.96224000      1.74795000     -1.72600000
  O      6.02797000      2.43277000     -2.09347000
  C     -0.19561400     -0.01539700     -5.46955000
  O     -0.23464700      0.23008200     -6.79720000
