110
Energy = -12474.54147607 au
 Ni      3.23634000     -2.06720000     -0.80545900
 Ni     -0.26302500     -0.73163700     -1.37711000
 Ni      2.78088000     -2.60981000      1.68680000
 Ni     -3.05141000      2.91820000     -1.12036000
 Ni     -1.42365000      1.41498000     -2.55223000
 Ni     -2.73205000     -1.65612000     -0.78545800
 Ni     -0.82748200     -1.30384000      1.06703000
 Ni     -3.51637000      2.29331000      1.26113000
 Ni      2.15821000      0.09798540     -2.00507000
 Ni      2.29218000      1.82738000      1.21111000
 Ni      1.53612000     -0.50946000      0.47579100
 Ni      3.97159000      0.26144700     -0.01517490
 Ni      1.17480000      4.04080000      0.18093100
 Ni     -0.68909100      0.49668100      4.26593000
 Ni     -0.09275880      1.02383000      1.79967000
 Ni      2.91027000      2.48961000     -1.29516000
 Ni     -0.59766200      3.72623000     -1.74018000
 Ni      1.37047000     -2.29430000     -2.80939000
 Ni      1.65968000      1.26729000      3.77732000
 Ni      0.83697100     -2.92101000     -0.27136100
 Ni      0.65879300      3.38965000      2.59931000
 Ni      0.48661800      1.61868000     -0.63877200
 Ni      0.37942800     -0.18231900     -3.87474000
 Ni     -0.99006800     -3.13932000     -2.14894000
 Ni     -1.70843000      2.54150000      3.15332000
 Ni     -2.53016000      0.19959000      2.57507000
 Ni      3.35868000     -0.33515700      2.43196000
 Ni      0.21647800     -3.47071000      2.22941000
 Ni     -3.72095000      0.68526400     -1.92372000
 Ni     -1.18530000      3.25899000      0.75813600
 Ni     -4.28084000     -0.05389860      0.48293100
 Ni     -3.17698000     -2.15162000      1.69944000
 Ni      1.07514000      2.26372000     -3.09778000
 Ni     -1.88141000      0.80329000     -0.03660860
 Ni     -1.61158000     -3.69486000      0.29649900
 Ni     -1.46025000     -1.83082000      3.56000000
 Ni     -2.01668000     -0.99025100     -3.26793000
 Ni      1.05760000     -1.10045000      3.13723000
  C     -4.36819000     -2.33784000      0.28813400
  O     -5.38692000     -3.12795000      0.21430200
  C     -3.63497000      3.15108000      3.11636000
  O     -4.40219000      3.96288000      3.87862000
  C      0.50995300      5.40118000     -1.10524000
  O      0.62783300      6.72231000     -1.34293000
  C     -5.23426000     -0.68244600     -1.35330000
  O     -6.47400000     -0.68410000     -1.90863000
  C     -4.64874000      0.16275400      2.55761000
  O     -5.83677000      0.04207080      3.21747000
  C     -3.25750000     -2.59185000     -3.06679000
  O     -4.15351000     -3.21908000     -3.83806000
  C      0.94447400      0.09721370      5.05517000
  O      1.16536000     -0.02733530      6.32268000
  C      2.90416000     -3.35021000     -3.12466000
  O      3.45828000     -4.09535000     -4.03477000
  C     -0.04877300     -1.81235000     -4.86807000
  O      0.00379717     -2.15285000     -6.16069000
  C     -2.64617000     -4.53331000     -1.09847000
  O     -3.20260000     -5.73640000     -1.24032000
  C     -2.25995000      4.87926000     -0.14736600
  O     -3.22595000      5.81425000     -0.20985800
  C     -1.29473000     -4.69020000      1.97548000
  O     -1.63867000     -5.91916000      2.48719000
  C     -0.03772720     -2.80051000      4.57882000
  O     -0.01771630     -3.47345000      5.75133000
  C      4.75342000     -1.04290000     -1.64588000
  O      5.97359000     -1.40862000     -2.08868000
  C     -3.26231000     -2.72507000      3.57818000
  O     -4.10118000     -3.38282000      4.41896000
  C     -4.73737000      2.13843000     -0.19518000
  O     -5.90062000      2.70068000     -0.07816240
  C      3.61304000     -3.92694000     -0.01034810
  O      4.58303000     -4.83216000     -0.12413800
  C      2.81527000     -1.79232000      3.50886000
  O      3.35386000     -2.24646000      4.59831000
  C     -1.20463000      3.66273000     -3.58455000
  O     -1.64633000      4.60228000     -4.42359000
  C      0.64399200     -4.81823000     -0.69661600
  O      1.08103000     -6.04511000     -0.78335900
  C     -2.51758000      0.36030000      4.48417000
  O     -3.27092000      0.37180800      5.52936000
  C      0.15376100      1.52435000     -4.86819000
  O      0.14320200      1.88659000     -6.18261000
  C      4.78563000      1.70347000      0.97648100
  O      5.98510000      2.16316000      1.29733000
  C     -0.24187800     -4.15587000     -3.56109000
  O     -0.43788900     -5.20661000     -4.30680000
  C     -2.70375000      0.30527800     -4.50149000
  O     -3.32197000      0.41559500     -5.66180000
  C      1.92883000     -4.52765000      2.34728000
  O      2.37150000     -5.60032000      3.01862000
  C      2.60190000     -0.17280100     -4.19315000
  O      3.51383000     -0.14866200     -5.14973000
  C      4.48210000     -1.39826000      1.32492000
  O      5.66787000     -1.70732000      1.75489000
  C      3.73391000      1.33901000      3.60198000
  O      4.52304000      1.60258000      4.68613000
  C      4.41342000      1.57747000     -2.15896000
  O      5.51289000      1.99080000     -2.77920000
  C     -0.05974960      2.74559000      4.30904000
  O     -0.08093340      3.46975000      5.38730000
  C      3.32158000      4.14908000     -0.23751400
  O      4.19122000      5.17417000     -0.37937800
  C      2.41356000      3.62872000     -3.36367000
  O      2.89657000      4.40224000     -4.31416000
  C      2.60462000      3.88673000      2.35410000
  O      3.33984000      4.72603000      3.11363000
  C     -0.51145300      4.65708000      1.89347000
  O     -0.78527800      5.86420000      2.25862000
  C     -3.65240000      2.34504000     -2.78331000
  O     -4.49725000      2.93388000     -3.56058000
