#B3LYP/6-31+G(d) OPT FREQ

110, Energy = -12366.43118611 au

0 1
 Ni      1.39972000     -3.38547000     -1.44080000
 Ni     -0.89806900     -0.43455000     -1.09019000
 Ni      1.40408000     -3.72782000      1.24118000
 Ni     -1.29569000      4.08031000     -0.43023700
 Ni     -1.04448000      1.94419000     -2.13954000
 Ni     -3.11013000     -0.03866280      0.14358200
 Ni     -0.98942000     -0.74198100      1.47243000
 Ni     -1.39833000      3.74225000      2.11795000
 Ni      1.33805000     -0.93113500     -2.47116000
 Ni      3.17821000      0.37977800      0.47393400
 Ni      1.20477000     -1.22391000      0.18771300
 Ni      3.52197000     -1.78912000     -1.15408000
 Ni      3.11826000      2.79614000     -0.57257500
 Ni      0.95156100      0.61320500      4.32684000
 Ni      0.99446500      0.85762400      1.75353000
 Ni      3.24810000      0.70451800     -2.23660000
 Ni      0.99881100      3.51940000     -1.83003000
 Ni     -0.66895000     -2.60693000     -2.76884000
 Ni      3.08821000      0.17556400      3.09072000
 Ni     -0.79646800     -2.88152000     -0.08006170
 Ni      2.97123000      2.53220000      2.17221000
 Ni      1.08705000      1.17538000     -0.81729800
 Ni     -0.86252300     -0.13796100     -3.80318000
 Ni     -2.99192000     -2.10417000     -1.47067000
 Ni      0.82716600      2.94018000      3.38899000
 Ni     -1.30799000      1.48295000      3.37218000
 Ni      3.35130000     -2.04332000      1.49646000
 Ni     -0.87435600     -3.23124000      2.47958000
 Ni     -3.22380000      2.51814000     -0.68593200
 Ni      0.89825600      3.34674000      0.77121900
 Ni     -3.31702000      2.14053000      1.84435000
 Ni     -3.26552000     -0.25803500      2.82548000
 Ni      1.28639000      1.53937000     -3.59882000
 Ni     -1.10748000      1.65723000      0.47815900
 Ni     -3.04897000     -2.40878000      1.17436000
 Ni     -1.08462000     -0.93869600      4.11292000
 Ni     -3.06486000      0.30472300     -2.44372000
 Ni      1.20164000     -1.64036000      2.76275000
  C      4.93488000      0.53865400      2.31743000
  O      6.05335000      0.44105300      3.01304000
  C      1.14856000     -3.11566000     -3.77131000
  O      1.54722000     -3.92606000     -4.75577000
  C      1.89986000      4.04148000      2.31615000
  O      2.30131000      5.23108000      2.62828000
  C     -3.09268000      3.89111000      1.43903000
  O     -3.89630000      4.79658000      1.85634000
  C     -2.84974000      4.33273000     -1.71470000
  O     -3.71959000      5.34340000     -1.97238000
  C     -0.22595900     -4.77448000     -1.46104000
  O     -0.43449800     -6.04826000     -1.79371000
  C      2.80585000     -0.19226200     -4.21133000
  O      3.52383000     -0.47864100     -5.31062000
  C      0.06898020     -5.19614000      1.70212000
  O      0.13935000     -6.48116000      2.03212000
  C      3.43515000      2.77171000     -2.91151000
  O      4.45383000      3.31986000     -3.62237000
  C      2.49671000      1.87645000      4.17754000
  O      3.13705000      2.36568000      5.19857000
  C     -3.00300000     -1.54281000      4.48646000
  O     -3.66851000     -1.82414000      5.62486000
  C      2.59386000     -1.23584000      4.67744000
  O      3.11329000     -1.65402000      5.82437000
  C      2.77942000     -4.58103000     -0.73542400
  O      3.37281000     -5.73415000     -0.89633200
  C      4.14793000     -2.71866000     -3.00572000
  O      5.26965000     -3.22015000     -3.35354000
  C     -1.96531000      2.06813000     -4.01708000
  O     -2.42436000      2.81203000     -5.00699000
  C      5.21934000     -1.99441000      0.36311800
  O      6.27187000     -2.73049000      0.67012000
  C     -2.82091000     -3.95799000      2.53819000
  O     -3.48474000     -5.01136000      3.03816000
  C     -4.68163000      1.61253000     -2.04256000
  O     -5.81978000      1.97342000     -2.63598000
  C     -0.81724000      3.48325000      3.98754000
  O     -1.11746000      4.19676000      4.98977000
  C      0.10580400     -3.13968000      4.21926000
  O      0.23199600     -3.83314000      5.39085000
  C     -0.13189700     -1.10002000     -5.25318000
  O     -0.10538200     -1.12221000     -6.54835000
  C     -4.85313000     -1.51647000      1.61754000
  O     -6.01305000     -1.94202000      2.09640000
  C     -4.96729000      1.35981000      0.75360900
  O     -6.26583000      1.53141000      1.02313000
  C      4.68023000      2.88328000      1.01126000
  O      5.78504000      3.62073000      1.17320000
  C     -3.27291000      1.40786000      3.61168000
  O     -3.93302000      1.79412000      4.64386000
  C      4.99964000      0.28224400     -1.04204000
  O      6.32730000      0.44238900     -1.23523000
  C      2.60526000      4.76054000     -0.61172600
  O      3.12142000      5.92181000     -1.03345000
  C     -4.83159000     -1.50545000     -1.48355000
  O     -6.02793000     -1.96054000     -1.80040000
  C     -0.37169100      5.47025000      1.25663000
  O     -0.60924400      6.75385000      1.00160000
  C     -2.19389000     -3.50416000     -3.46709000
  O     -2.59696000     -4.23525000     -4.48136000
  C     -0.38127300      4.49224000     -2.83436000
  O     -0.36503100      5.59476000     -3.56425000
  C      2.66237000     -3.40613000      2.53379000
  O      3.25903000     -4.23599000      3.29418000
  C      0.88838100      2.60124000     -5.23971000
  O      1.30131000      3.09996000     -6.30688000
  C     -3.16590000     -0.81682700     -4.06297000
  O     -3.99829000     -0.91788700     -5.09836000
  C     -3.08729000     -3.98900000     -0.69739400
  O     -3.87234000     -5.06399000     -0.83490100
  C     -0.64956800      0.56832100      5.16808000
  O     -0.90328000      0.80473600      6.38210000

