110
Energy = -12631.67463266 au
 Ni      1.26987000     -3.46636000     -2.13155000
 Ni     -0.89741100     -0.63944100     -1.25523000
 Ni      1.69283000     -4.12067000      0.33311700
 Ni     -1.08554000      3.89198000     -0.29775300
 Ni     -1.19959000      1.84680000     -1.96802000
 Ni     -2.92980000     -0.34902700      0.43795400
 Ni     -0.55229800     -1.23774000      1.24844000
 Ni     -0.66482800      3.22819000      2.27085000
 Ni      1.14633000     -0.98504500     -3.21287000
 Ni      3.81343000      0.06468290     -0.50550300
 Ni      1.40497000     -1.54670000     -0.41856300
 Ni      3.38261000     -1.96995000     -2.09543000
 Ni      3.28571000      2.59932000     -1.13989000
 Ni      1.90248000     -0.14856000      3.85030000
 Ni      1.49681000      0.35215300      1.33495000
 Ni      3.19178000      0.55718300     -2.95102000
 Ni      0.84624900      3.50224000     -1.89931000
 Ni     -1.09207000     -2.60819000     -3.06453000
 Ni      3.71180000     -0.52026400      2.27371000
 Ni     -0.68630900     -3.22251000     -0.57484300
 Ni      3.64234000      1.85912000      1.41903000
 Ni      1.16548000      0.93188800     -1.14876000
 Ni     -1.42222000     -0.01897980     -3.86346000
 Ni     -3.02098000     -2.38158000     -1.39456000
 Ni      1.65805000      2.33382000      3.12660000
 Ni     -0.47011100      0.65180800      2.99214000
 Ni      3.70442000     -2.49578000      0.30540600
 Ni     -0.43986400     -3.70219000      2.06133000
 Ni     -3.24251000      2.20537000     -0.20171000
 Ni      1.27172000      2.84821000      0.63139900
 Ni     -2.96654000      1.57923000      2.28066000
 Ni     -2.54786000     -1.04582000      2.98613000
 Ni      0.75471400      1.43427000     -3.73794000
 Ni     -0.82164500      1.27479000      0.52636500
 Ni     -2.67702000     -2.83142000      1.22926000
 Ni     -0.13879400     -1.89201000      3.79529000
 Ni     -3.37656000      0.21792500     -2.14512000
 Ni      1.85799000     -2.30009000      2.26042000
  C      3.20213000     -1.66929000      3.84333000
  O      4.29371000     -2.08286000      4.42531000
  C     -1.73266000     -4.00375000     -1.94462000
  O     -2.04786000     -5.23639000     -2.18950000
  C     -4.35642000     -1.90691000      2.31766000
  O     -5.45070000     -2.38739000      2.92940000
  C     -1.90439000     -0.37613000      4.76713000
  O     -2.44247000     -0.26822300      5.99305000
  C      4.10631000      3.60050000      0.39618600
  O      5.20227000      4.40598000      0.52971500
  C     -1.63843000     -3.08577000      3.49122000
  O     -2.11528000     -3.84950000      4.42688000
  C      3.49699000      1.48467000      3.32773000
  O      4.39358000      1.93200000      4.15669000
  C      2.52582000      1.61684000     -4.58072000
  O      3.01323000      1.99417000     -5.79011000
  C      0.41114800     -5.54270000     -0.39463600
  O      0.59759300     -6.82519000     -0.21675300
  C     -3.98453000      3.51464000      1.07993000
  O     -5.03752000      4.32238000      1.05716000
  C      1.56901000     -1.85498000      4.77336000
  O      1.57703000     -2.16224000      6.02770000
  C     -2.72503000     -2.05925000     -4.09633000
  O     -3.37143000     -2.68336000     -5.09836000
  C     -4.91295000     -0.74295100     -2.83214000
  O     -5.96463000     -0.55806900     -3.52635000
  C     -4.58882000     -3.05828000     -0.38118800
  O     -5.64312000     -3.73744000     -0.72983400
  C     -0.32424000      3.31207000     -3.87894000
  O     -0.61677700      4.14420000     -4.89912000
  C      0.19998900     -0.52909100     -4.79053000
  O      0.30309200     -0.84070300     -6.03918000
  C      1.21428000      4.88603000      0.05172250
  O      1.69786000      6.10651000      0.31159100
  C      0.92425800      1.51096000      4.96111000
  O      0.96958000      1.79841000      6.28573000
  C     -4.41556000      0.88328500      3.32632000
  O     -5.41228000      1.34373000      4.01264000
  C      3.10845000     -1.14987000     -3.76322000
  O      3.63467000     -1.57515000     -4.86961000
  C      4.91676000      0.28888400      1.02087000
  O      6.21197000      0.28666700      1.06154000
  C     -1.59851000      5.01747000      1.38230000
  O     -1.93590000      6.22002000      1.83655000
  C     -2.53679000      1.43141000     -4.72791000
  O     -2.93396000      1.60748000     -5.93569000
  C     -1.23400000      4.87482000     -2.06500000
  O     -1.61253000      6.12513000     -2.25177000
  C     -3.53051000      2.68896000     -2.24150000
  O     -4.35875000      3.47383000     -2.93670000
  C      1.36497000     -4.10615000      2.56765000
  O      1.72288000     -5.00357000      3.42697000
  C     -1.60435000      2.74178000      3.99941000
  O     -1.96061000      3.40395000      5.10913000
  C      4.56722000      1.41783000     -1.98650000
  O      5.73318000      1.76037000     -2.42889000
  C      0.54566500     -3.43826000     -4.01584000
  O      0.65956200     -4.40141000     -5.00131000
  C      1.42429000      4.38403000      2.89005000
  O      1.82104000      5.29874000      3.76833000
  C      3.09950000     -3.88436000     -1.53556000
  O      3.73532000     -4.88367000     -2.06348000
  C     -4.80962000      0.51502100      0.06328810
  O     -6.13466000      0.38804200      0.25414500
  C      3.69122000     -4.10383000      1.65523000
  O      4.84209000     -4.79098000      1.76099000
  C     -2.08232000     -4.70535000      1.11950000
  O     -2.77963000     -5.86478000      1.37489000
  C      2.66472000      3.97869000     -2.59963000
  O      3.19289000      5.09272000     -3.16849000
  C      4.84501000     -1.55527000     -0.97295500
  O      6.06482000     -1.78653000     -1.34596000
