110
Energy = -12296.99728562 au
 Ni     -0.42909400     -3.43294000     -1.98806000
 Ni     -2.00748000     -0.27599600     -0.59159700
 Ni      0.85366500     -3.93973000      0.51169400
 Ni     -1.56650000      4.18963000     -0.24712900
 Ni     -2.49468000      2.21708000     -1.61984000
 Ni     -3.40516000      0.43709200      1.73356000
 Ni     -0.78568600     -0.59178500      1.66051000
 Ni     -0.27671700      3.84935000      2.12773000
 Ni     -0.82349200     -1.04959000     -2.85888000
 Ni      2.52228000      0.00532388     -1.56501000
 Ni      0.38214800     -1.33970000     -0.53886100
 Ni      1.73422000     -2.05885000     -2.82968000
 Ni      2.03651000      2.45283000     -2.50198000
 Ni      2.59369000      0.36263200      3.09004000
 Ni      1.21013000      0.74061700      0.76914200
 Ni      1.23313000      0.39065100     -3.79863000
 Ni     -0.48471300      3.53808000     -2.43576000
 Ni     -2.86671000     -2.40571000     -1.86290000
 Ni      3.74552000     -0.34256500      0.86127100
 Ni     -1.59379000     -2.67891000      0.30910700
 Ni      3.25049000      2.09577000     -0.14476000
 Ni     -0.00055567      1.06107000     -1.49563000
 Ni     -3.29434000      0.05495960     -2.82605000
 Ni     -4.04358000     -1.65780000      0.31102500
 Ni      2.05559000      2.95313000      2.04990000
 Ni     -0.03917960      1.54226000      3.25113000
 Ni      2.80904000     -2.49512000     -0.52190700
 Ni     -0.42215900     -3.14851000      2.60541000
 Ni     -3.48025000      2.87073000      0.53554500
 Ni      0.84872800      3.19440000     -0.09418980
 Ni     -2.32771000      2.47139000      2.96333000
 Ni     -1.95418000      0.15194000      3.94482000
 Ni     -1.26062000      1.36472000     -3.78675000
 Ni     -1.16829000      1.79138000      0.70306000
 Ni     -2.90786000     -1.89885000      2.55340000
 Ni      0.48754100     -0.83307500      4.07967000
 Ni     -4.40547000      0.67450500     -0.71771400
 Ni      1.69020000     -1.75471000      1.81913000
  C      3.58153000     -1.01397000     -3.12675000
  O      4.67675000     -1.01781000     -3.86336000
  C      1.07790000     -1.42227000     -4.84077000
  O      1.37258000     -1.84567000     -6.08584000
  C     -0.75640000     -5.12431000     -0.70550500
  O     -0.95641800     -6.40734000     -1.00152000
  C      3.84756000      2.15869000     -2.86567000
  O      4.79370000      2.75665000     -3.52023000
  C      1.97962000      2.12792000      4.31981000
  O      2.40160000      2.77786000      5.41607000
  C     -2.59247000      4.18645000      1.76179000
  O     -3.24032000      5.22763000      2.18267000
  C     -3.95700000      0.89862800      3.40052000
  O     -4.88001000      1.41233000      4.14099000
  C      1.89686000      1.80087000     -4.87509000
  O      2.17294000      2.14222000     -6.11048000
  C      2.76383000     -3.17821000      2.30054000
  O      3.53245000     -3.88712000      3.14233000
  C     -4.65457000     -0.84197100      2.22724000
  O     -5.90525000     -1.12945000      2.39778000
  C      4.08691000      2.36356000      2.17398000
  O      5.16326000      2.97110000      2.68114000
  C      0.24033500     -3.15316000      4.51494000
  O      0.17226000     -3.83038000      5.62804000
  C     -2.76742000     -1.85334000      4.62269000
  O     -3.56409000     -2.26231000      5.60752000
  C      1.35171000      4.60913000      2.12120000
  O      1.74501000      5.75105000      2.54116000
  C     -2.78589000     -4.02166000      1.94883000
  O     -3.59108000     -5.07032000      2.20215000
  C      3.09499000      4.00288000     -0.24988900
  O      3.83529000      5.16708000     -0.28542000
  C     -0.94734300     -3.48257000     -3.82128000
  O     -1.19675000     -4.39966000     -4.75053000
  C     -3.34662000     -1.69199000     -3.89017000
  O     -4.21779000     -2.22149000     -4.78811000
  C      4.65504000     -2.23282000     -0.48308600
  O      5.74870000     -2.97151000     -0.66412900
  C      4.91283000      0.82666800     -0.51772700
  O      6.23460000      0.96362000     -0.68121200
  C      4.77691000     -0.53966800      2.39195000
  O      5.97753000     -0.83243100      2.81703000
  C     -2.87652000      4.05907000     -1.39937000
  O     -3.75467000      4.80059000     -1.94730000
  C     -3.71596000     -3.99080000     -0.48911800
  O     -4.53066000     -4.84165000     -1.08786000
  C      0.09580450     -5.16756000      2.03647000
  O      0.16762500     -6.38934000      2.56845000
  C     -0.49517400      0.38792800      5.06232000
  O     -0.42154200      0.73416400      6.31881000
  C     -0.95214200      3.28569000      3.85492000
  O     -0.98126600      3.85415000      5.02840000
  C     -1.36408000      3.37131000     -4.17183000
  O     -1.72974000      4.21103000     -5.20671000
  C     -3.88069000      1.97103000     -3.38790000
  O     -5.04472000      2.32308000     -3.96392000
  C      2.57594000     -4.68010000     -0.07168690
  O      3.18242000     -5.86190000     -0.17049800
  C      2.21117000     -3.88120000     -2.73680000
  O      2.82420000     -4.73377000     -3.53369000
  C     -1.21742000      0.06421370     -5.17900000
  O     -1.73953000     -0.04256830     -6.38800000
  C     -5.10773000     -1.01500000     -1.51377000
  O     -6.36191000     -1.18566000     -1.74641000
  C      2.63188000     -0.90529300      4.72145000
  O      3.31687000     -1.06221000      5.85107000
  C      0.03439000      5.47435000     -0.63002800
  O     -0.14310400      6.77919000     -0.49150800
  C      1.27118000      4.48276000     -2.91529000
  O      1.62627000      5.56623000     -3.63221000
  C     -5.46690000      1.99791000      0.59007900
  O     -6.68913000      2.58360000      0.61488800
