110
Energy = -12594.00775133 au
 Ni      0.21137800     -3.21414000     -2.28215000
 Ni     -1.09798000      0.16249800     -1.29540000
 Ni      0.32934700     -3.94033000      0.14706700
 Ni      0.07557980      4.51001000     -0.37487000
 Ni     -0.66983900      2.69831000     -2.10070000
 Ni     -2.86514000      0.99093800      0.43347600
 Ni     -0.87268100     -0.52333300      1.20916000
 Ni      0.27728500      3.84142000      2.22925000
 Ni      0.63097300     -0.67726000     -3.01213000
 Ni      3.52291000     -0.37078800     -0.51352600
 Ni      0.88056000     -1.36165000     -0.52819100
 Ni      2.74263000     -2.11790000     -2.27113000
 Ni      3.75112000      2.11918000     -1.31311000
 Ni      1.79767000     -0.12963800      3.88605000
 Ni      1.54767000      0.45323600      1.23843000
 Ni      3.03395000      0.36529600     -3.11273000
 Ni      1.76913000      3.65031000     -2.04985000
 Ni     -1.82754000     -1.67587000     -3.13604000
 Ni      3.60814000     -1.01387000      2.05680000
 Ni     -1.58220000     -2.39627000     -0.58049700
 Ni      4.04061000      1.42416000      1.26103000
 Ni      1.32602000      1.11885000     -1.24918000
 Ni     -1.36481000      0.84418200     -3.86790000
 Ni     -3.54764000     -0.80378300     -1.31782000
 Ni      2.17062000      2.23204000      3.13545000
 Ni     -0.30594800      1.41968000      3.09517000
 Ni      2.93626000     -2.80916000      0.22254000
 Ni     -1.40174000     -3.16286000      2.03895000
 Ni     -2.34013000      3.46366000     -0.27474600
 Ni      2.25150000      3.17649000      0.68017700
 Ni     -2.23776000      2.72234000      2.26109000
 Ni     -2.63729000      0.21859700      2.97910000
 Ni      1.15686000      1.84714000     -3.74645000
 Ni     -0.40562000      1.96165000      0.47220600
 Ni     -3.30473000     -1.59841000      1.15929000
 Ni     -0.59944200     -1.24160000      3.81413000
 Ni     -3.14733000      1.65728000     -2.04963000
 Ni      1.12504000     -2.04880000      1.98608000
  C     -3.35149000      1.56424000     -4.08370000
  O     -4.19492000      2.00782000     -5.02666000
  C     -2.35813000      1.29392000      4.54465000
  O     -2.96399000      1.60508000      5.69021000
  C      4.90778000     -0.21273700      0.87756600
  O      6.20246000     -0.37291600      0.87936100
  C      3.66664000     -2.71821000      2.94138000
  O      4.63133000     -3.27931000      3.62906000
  C      2.13666000     -4.55979000      1.00520000
  O      2.65601000     -5.78870000      1.26141000
  C     -0.66849300      2.61784000     -4.75266000
  O     -0.83086800      3.16992000     -5.98028000
  C      0.95054200      1.58132000      4.48184000
  O      0.73179300      2.04701000      5.67593000
  C      4.73160000     -2.67749000     -0.81112500
  O      5.77404000     -3.49862000     -0.78331600
  C     -3.38454000     -3.44733000     -0.29592600
  O     -4.08405000     -4.54567000     -0.56738600
  C     -2.85616000      3.96791000     -2.28313000
  O     -3.52447000      5.09001000     -2.62341000
  C     -1.64578000     -3.76816000     -3.13142000
  O     -2.08758000     -4.73359000     -3.96636000
  C      1.90640000     -4.31301000     -2.07742000
  O      2.27891000     -5.43191000     -2.74969000
  C      0.07741080      4.46605000     -2.33364000
  O     -0.13736100      5.43442000     -3.18295000
  C     -4.83557000      1.51525000     -0.95333000
  O     -6.09408000      1.94100000     -1.03376000
  C     -0.99027100      5.36472000      1.19777000
  O     -1.02025000      6.73056000      1.20426000
  C     -5.07356000     -1.19065000      0.28875000
  O     -6.33275000     -1.63851000      0.30659400
  C      3.73214000      1.01626000      3.23920000
  O      4.66762000      1.27817000      4.10047000
  C      1.70668000     -1.31856000      5.32838000
  O      2.30224000     -1.59002000      6.45945000
  C     -3.97544000     -1.50555000     -3.20975000
  O     -5.03627000     -1.95727000     -3.89393000
  C     -1.72321000     -1.65541000      5.25423000
  O     -1.89351000     -2.06361000      6.46184000
  C     -3.57117000     -1.89254000      3.15273000
  O     -4.63341000     -2.40387000      3.81842000
  C      0.58909900     -3.50330000      3.37722000
  O      1.08362000     -4.43523000      4.20181000
  C      0.86369900     -2.45172000     -4.27485000
  O      1.06267000     -2.86656000     -5.52942000
  C     -3.68964000      3.71150000      1.30239000
  O     -4.59093000      4.67232000      1.64034000
  C      2.04335000      4.04695000      2.66490000
  O      2.55273000      5.04535000      3.31239000
  C     -1.17825000      3.74049000      3.50326000
  O     -1.53141000      4.63409000      4.37937000
  C      4.32265000     -1.16208000     -3.23948000
  O      4.93091000     -1.79977000     -4.24120000
  C      4.21399000      3.04410000      0.27318000
  O      5.23219000      3.82835000      0.47442400
  C     -0.96233900     -5.16999000     -0.68267400
  O     -1.06315000     -6.46225000     -0.70343900
  C     -2.32931000     -4.83846000      2.28395000
  O     -2.59704000     -5.77845000      3.07267000
  C      2.03205000      4.67971000     -0.46558500
  O      2.73679000      5.77061000     -0.39037700
  C      1.95907000      0.44567500     -5.06636000
  O      2.60976000      0.51450000     -6.25512000
  C      3.10936000      2.74674000     -3.15715000
  O      3.85462000      3.46477000     -3.95354000
  C     -1.39316000     -0.87289700     -5.08366000
  O     -1.82354000     -1.13081000     -6.33384000
  C     -4.33942000      0.94080800      2.26457000
  O     -5.58791000      1.23384000      2.67177000
  C      4.80245000      0.12067600     -2.33125000
  O      5.92531000      0.76124700     -2.50346000
