#B3LYP/6-31+G(d) OPT FREQ

110, Energy = -12226.74154633 au

0 1
 Ni     -3.21507000     -2.44930000     -1.92818000
 Ni     -1.72046000      0.75380800     -0.71666000
 Ni     -2.81574000     -3.50723000      0.29130800
 Ni      2.33576000      3.14001000     -0.51630000
 Ni     -0.03665940      2.54961000     -1.73276000
 Ni     -1.80165000      2.18183000      1.48861000
 Ni     -1.16871000     -0.37571400      1.52199000
 Ni      2.84605000      2.11919000      1.87604000
 Ni     -1.72447000     -0.70834000     -3.05932000
 Ni      1.25353000     -2.50033000     -1.60943000
 Ni     -1.12427000     -1.75681000     -0.65501700
 Ni     -1.13981000     -3.11292000     -2.81523000
 Ni      2.85510000     -0.71210800     -2.74529000
 Ni      1.69164000     -2.44590000      2.97087000
 Ni      1.09531000     -1.14100000      0.57411200
 Ni      0.52170700     -1.41879000     -3.93475000
 Ni      2.36224000      1.72514000     -2.87622000
 Ni     -3.93324000      0.17206000     -1.91384000
 Ni      1.74637000     -3.71806000      0.76110400
 Ni     -3.62488000     -1.06004000      0.35731800
 Ni      3.49082000     -1.92942000     -0.42366700
 Ni      0.54027500     -0.00837587     -1.67306000
 Ni     -2.24337000      1.89749000     -2.98220000
 Ni     -4.05146000      1.52559000      0.28485900
 Ni      3.42142000     -0.53999500      1.78234000
 Ni      1.12260000      0.26985800      2.98154000
 Ni     -0.62642200     -4.27219000     -0.62399900
 Ni     -2.81651000     -2.21858000      2.51278000
 Ni     -0.05463270      3.94815000      0.38724100
 Ni      2.87695000      0.65604500     -0.46446000
 Ni      0.51660000      2.80899000      2.90976000
 Ni     -1.27209000      1.12262000      3.72652000
 Ni      0.00145428      1.19014000     -3.93260000
 Ni      0.49173700      1.37162000      0.52291300
 Ni     -3.53401000      0.42912200      2.39299000
 Ni     -0.56812500     -1.68374000      3.83885000
 Ni     -2.35092000      3.35776000     -0.69890100
 Ni     -0.51682400     -2.98444000      1.67287000
  C     -4.40444000     -1.16880000      3.42266000
  O     -5.27260000     -1.36103000      4.43416000
  C      2.42863000     -2.18164000     -4.36923000
  O      3.03780000     -2.66285000     -5.43087000
  C     -1.20941000      3.21402000      4.17474000
  O     -1.33319000      3.74512000      5.40372000
  C      4.19486000      2.41388000     -0.88324600
  O      5.46941000      2.76859000     -1.14780000
  C     -1.13206000      4.64509000      1.90164000
  O     -1.48665000      5.82812000      2.42044000
  C      3.79125000     -3.18891000      1.46150000
  O      4.75540000     -4.08672000      1.81351000
  C      4.58514000      1.91647000      2.75088000
  O      5.57547000      2.68744000      3.07972000
  C     -0.37057700      5.05174000     -1.17295000
  O     -0.41601900      6.32185000     -1.52441000
  C     -1.58736000     -0.32163400      5.20100000
  O     -1.80711000     -0.30406900      6.50832000
  C     -4.85809000     -1.56803000     -2.81511000
  O     -6.12437000     -2.02406000     -3.04651000
  C      0.19668600     -0.24330900     -5.49372000
  O      0.23344000     -0.30593600     -6.85673000
  C      1.36341000     -2.32011000      4.86872000
  O      1.77250000     -2.84629000      6.02940000
  C      1.41471000     -5.19965000     -0.74978100
  O      1.62018000     -6.54115000     -0.77993100
  C     -2.50137000     -4.23550000     -1.53697000
  O     -3.10597000     -5.31682000     -1.96168000
  C     -5.04817000     -0.04810710      0.86557100
  O     -6.33117000     -0.10618100      0.86299400
  C     -1.50918000     -3.60351000      3.84350000
  O     -2.03209000     -4.50160000      4.70631000
  C      0.51765900     -3.99266000     -3.47377000
  O      0.81124000     -5.10488000     -4.17418000
  C      2.09995000      4.34487000      3.24046000
  O      2.37171000      5.10616000      4.21988000
  C     -4.01406000      3.75794000      0.64746000
  O     -4.84608000      4.79822000      0.53366300
  C      3.63688000     -0.97482300      3.64831000
  O      4.69371000     -1.16397000      4.42614000
  C      3.05046000      1.09586000     -4.49649000
  O      3.82357000      1.53968000     -5.46958000
  C      1.79784000      1.26559000      4.46577000
  O      2.19215000      1.25147000      5.73331000
  C     -1.34536000     -5.25458000      1.20547000
  O     -2.00563000     -6.37752000      1.53202000
  C     -2.77683000      0.70867200     -4.49083000
  O     -3.58145000      0.66355700     -5.57905000
  C      1.17386000     -4.04958000      2.37173000
  O      1.23788000     -5.13530000      3.04698000
  C     -4.70248000      2.06733000     -1.96418000
  O     -5.94549000      2.33599000     -2.47285000
  C     -3.87068000      2.28425000      2.92239000
  O     -4.67678000      3.06078000      3.62837000
  C      2.17834000      3.86271000     -2.62954000
  O      2.68486000      4.90676000     -3.29877000
  C     -0.12007500      2.98630000     -4.36715000
  O     -0.11389800      3.74412000     -5.45601000
  C      5.07138000     -0.55966400      0.42903200
  O      6.40522000     -0.63939400      0.58715700
  C      2.41021000      4.62419000      0.69204100
  O      3.08387000      5.74968000      0.71748900
  C      4.63537000     -0.48438500     -2.21141000
  O      5.81761000     -0.52925900     -2.81265000
  C     -4.50446000     -2.63934000      0.61060400
  O     -5.52975000     -3.28530000      1.03221000
  C      3.54185000     -3.51972000     -1.56343000
  O      4.39051000     -4.39295000     -2.06829000
  C     -1.86344000     -2.29292000     -4.05548000
  O     -2.50376000     -2.51065000     -5.13971000
  C     -2.39062000      3.85546000     -2.75580000
  O     -3.01492000      4.84558000     -3.48021000

