#B3LYP/6-31+G(d) OPT FREQ

110, Energy = -12595.67250753 au

0 1
 Ni     -2.49320000     -1.21715000     -3.37066000
 Ni      0.13275500      1.00349000     -1.65797000
 Ni     -3.85938000     -1.29950000     -1.31403000
 Ni      4.18958000      0.95479500      0.56014200
 Ni      3.04251000      1.25715000     -1.69762000
 Ni     -0.05953640      3.13759000     -0.03066540
 Ni     -1.19754000      0.82200500      0.55586400
 Ni      2.89901000      0.75727900      2.95384000
 Ni      0.07738240     -1.17532000     -3.67207000
 Ni      0.15405800     -3.43187000     -0.50458900
 Ni     -1.13555000     -1.18036000     -1.10468000
 Ni     -1.12525000     -3.29994000     -2.71263000
 Ni      2.77967000     -3.23516000     -0.44661000
 Ni     -1.24952000     -1.54056000      3.43945000
 Ni      0.14375200     -1.31728000      1.16605000
 Ni      1.59487000     -3.03226000     -2.72829000
 Ni      4.05745000     -1.18105000     -0.91984200
 Ni     -1.22860000      1.00648000     -4.05136000
 Ni     -1.16169000     -3.62433000      1.80666000
 Ni     -2.61243000      0.90519000     -1.82423000
 Ni      1.38249000     -3.47132000      1.82226000
 Ni      1.46070000     -1.10326000     -1.04697000
 Ni      1.31962000      1.11480000     -3.97568000
 Ni     -1.20969000      3.19463000     -2.34238000
 Ni      1.27773000     -1.50110000      3.54784000
 Ni      0.08699150      0.69810200      2.88179000
 Ni     -2.48192000     -3.47275000     -0.65576900
 Ni     -3.88513000      0.75182200      0.48927900
 Ni      2.73103000      3.16292000     -0.00524446
 Ni      2.84089000     -1.23512000      1.29777000
 Ni      1.34724000      3.01860000      2.29088000
 Ni     -1.29261000      2.92329000      2.24773000
 Ni      2.87104000     -0.81429800     -3.23127000
 Ni      1.42569000      0.90286800      0.60941800
 Ni     -2.59099000      3.02190000     -0.07099140
 Ni     -2.55704000      0.60496000      2.90512000
 Ni      1.54127000      3.19654000     -2.24023000
 Ni     -2.52341000     -1.41951000      1.10990000
  C      1.23155000      4.83267000     -0.15906100
  O      1.24448000      6.17901000     -0.14756100
  C     -0.62037500      4.71519000      2.17288000
  O     -0.90058700      5.86734000      2.75789000
  C     -4.56725000      0.56058600      2.41122000
  O     -5.74926000      0.78651300      3.02982000
  C     -2.28786000      2.36244000      3.98894000
  O     -2.93239000      2.95983000      5.01172000
  C     -1.48815000     -0.68920500     -4.88236000
  O     -1.77921000     -1.00909000     -6.10515000
  C      0.14284200     -3.24868000     -4.05990000
  O      0.15968900     -4.01475000     -5.10280000
  C     -2.06026000     -5.33505000      1.37320000
  O     -2.41465000     -6.30782000      2.14606000
  C      1.61940000     -0.93612200     -4.72769000
  O      1.87577000     -1.38787000     -5.91412000
  C      0.31532300      4.45301000     -3.30104000
  O      0.47888300      5.50434000     -4.10432000
  C     -1.92253000      4.47591000     -1.07576000
  O     -2.31585000      5.68394000     -1.29880000
  C     -1.10431000     -4.67094000     -1.20703000
  O     -1.11433000     -5.96073000     -1.33981000
  C     -5.48046000     -0.62036700     -0.17742700
  O     -6.79869000     -0.77067200     -0.25872400
  C      4.60232000     -0.56454400      1.61052000
  O      5.73544000     -0.96424700      2.08165000
  C     -4.46988000     -3.34430000     -0.20372900
  O     -5.32887000     -4.34879000     -0.28831500
  C      2.13561000     -5.08225000     -1.22317000
  O      2.62017000     -5.99425000     -2.08173000
  C      0.83675000     -0.49563900      5.13029000
  O      1.19097000     -0.53588700      6.39182000
  C      4.93236000      0.62091000     -1.17612000
  O      6.11855000      0.66576500     -1.69611000
  C     -2.58822000      2.60954000     -3.87842000
  O     -3.27308000      3.34469000     -4.80021000
  C      0.17049200      2.10568000     -5.09334000
  O      0.20444200      2.44439000     -6.42609000
  C      3.35283000      3.53449000     -1.80680000
  O      4.27885000      4.34989000     -2.18405000
  C      4.19650000     -2.56149000     -2.51408000
  O      5.12141000     -3.02333000     -3.43039000
  C     -3.40827000     -2.25426000      2.76518000
  O     -4.52444000     -2.78664000      3.26783000
  C      3.74165000      1.01657000      4.61710000
  O      4.70634000      1.34730000      5.37390000
  C      0.57494100      2.45248000      4.23653000
  O      0.60633200      2.86653000      5.50201000
  C     -0.07467890     -3.15217000      3.72722000
  O     -0.16793100     -3.88299000      4.79136000
  C     -2.28944000     -0.46826500      4.80584000
  O     -2.81932000     -0.56288400      6.02489000
  C      2.83337000      4.24744000      2.41189000
  O      3.34690000      5.19897000      3.12754000
  C      4.78143000     -2.82033000      0.46222900
  O      5.57069000     -3.90775000      0.42894400
  C     -3.53608000      3.41387000      1.54048000
  O     -4.43490000      4.37372000      1.81190000
  C      1.49424000     -5.37586000      0.86483800
  O      1.79610000     -6.43791000      1.59522000
  C     -3.96153000     -0.10006800     -2.97184000
  O     -4.94608000      0.17826200     -3.76499000
  C      3.30208000      1.26684000     -3.54645000
  O      4.18612000      1.74587000     -4.36359000
  C      3.00285000     -2.65794000      3.29844000
  O      3.84966000     -3.25771000      4.17212000
  C     -3.04632000     -3.04910000     -2.84157000
  O     -3.83930000     -3.78490000     -3.55855000
  C     -4.33518000      2.24426000     -1.03028000
  O     -5.50583000      2.79389000     -1.50564000
  C      4.48851000      2.72530000      1.13124000
  O      5.69424000      3.34769000      1.28828000

