110
Energy = -12252.57443809 au
 Ni     -0.97731800      4.05850000      0.13008800
 Ni      1.52665000      1.22890000     -0.46748700
 Ni     -1.56552000      2.90690000      2.43925000
 Ni      2.13170000     -2.93456000     -2.25381000
 Ni      2.14740000     -0.24568400     -2.46787000
 Ni      3.63657000      0.07974390      0.97717100
 Ni      0.90467200      0.15064600      1.78287000
 Ni      1.45249000     -3.97711000      0.05916980
 Ni     -0.27215100      2.56294000     -1.96702000
 Ni     -2.85093000     -0.01750960     -0.80919000
 Ni     -0.90927100      1.37013000      0.39014700
 Ni     -2.86115000      2.64575000     -1.09985000
 Ni     -2.18666000     -1.63470000     -2.86089000
 Ni     -1.49631000     -2.32474000      3.00049000
 Ni     -0.93167600     -1.21030000      0.61424600
 Ni     -2.20837000      1.10897000     -3.07706000
 Ni      0.27448100     -1.67835000     -3.68002000
 Ni      1.64389000      3.81927000     -0.81372000
 Ni     -3.46727000     -1.16906000      1.50322000
 Ni      0.91400000      2.74047000      1.56723000
 Ni     -2.87057000     -2.65708000     -0.53676500
 Ni     -0.31469300     -0.14082100     -1.63023000
 Ni      2.20922000      2.38554000     -2.69981000
 Ni      3.47098000      2.57341000      0.58820100
 Ni     -0.86159900     -3.90076000      0.79161500
 Ni      0.96592700     -2.62198000      2.22028000
 Ni     -3.43961000      1.53858000      1.16935000
 Ni      0.29342500      1.63831000      3.85986000
 Ni      3.96038000     -1.47185000     -1.04222000
 Ni     -0.35250800     -2.88451000     -1.42396000
 Ni      3.36937000     -2.54186000      1.24018000
 Ni      2.77674000     -1.09032000      3.24722000
 Ni      0.33271200      0.97022100     -3.95660000
 Ni      1.49560000     -1.34860000     -0.23984700
 Ni      2.76036000      1.46149000      3.00434000
 Ni      0.38625800     -0.93606100      4.10398000
 Ni      4.00740000      1.20681000     -1.26583000
 Ni     -1.57430000      0.27675000      2.65900000
  C     -0.24953000      4.25727000     -2.82123000
  O     -0.22686600      5.24537000     -3.60921000
  C      1.80057000      2.06073000     -4.97961000
  O      2.19828000      2.65800000     -6.07950000
  C      3.46003000     -2.75816000      3.01100000
  O      4.27471000     -3.48477000      3.64399000
  C     -4.28336000     -2.24041000     -1.87333000
  O     -5.46882000     -2.70105000     -2.25742000
  C     -0.52592900      4.66145000      2.52328000
  O     -0.57865800      5.81157000      3.22888000
  C      0.24209700     -2.73601000      4.22390000
  O      0.44014400     -3.49729000      5.23146000
  C      3.15803000      3.89324000      2.14059000
  O      3.91780000      4.84692000      2.72423000
  C     -2.91218000     -1.61429000      4.09680000
  O     -3.61472000     -1.95681000      5.15401000
  C      3.65535000     -4.29309000     -0.31855200
  O      4.39690000     -5.39550000     -0.30805300
  C     -3.82594000     -0.06590520     -3.52509000
  O     -4.68264000     -0.03310180     -4.55205000
  C      0.99484500     -3.84883000     -3.62273000
  O      1.33178000     -4.82605000     -4.51980000
  C     -4.40074000      0.52545900      2.58392000
  O     -5.60540000      0.71566700      3.21210000
  C      1.76645000      2.91133000      4.51374000
  O      2.02544000      3.46456000      5.66626000
  C      2.02311000     -0.86161800     -4.63553000
  O      2.69733000     -1.02945000     -5.81080000
  C     -0.86871000      0.39640300      5.14071000
  O     -1.08840000      0.44713800      6.48550000
  C      4.40538000      0.18627300     -3.27253000
  O      5.49664000      0.64091700     -3.83869000
  C      3.14193000      3.70971000     -1.88980000
  O      3.91173000      4.59193000     -2.42292000
  C     -3.99095000      3.34774000      1.21957000
  O     -4.99406000      4.18469000      1.44603000
  C     -4.86684000     -2.36455000      1.13119000
  O     -5.93126000     -2.93104000      1.61656000
  C     -2.68990000     -4.73010000     -0.38758400
  O     -3.42346000     -5.81209000     -0.53476300
  C     -1.25137000      2.13560000     -4.63193000
  O     -1.63576000      2.66038000     -5.84529000
  C     -3.60354000      3.30169000     -2.83495000
  O     -4.56870000      4.05232000     -3.25865000
  C      0.24018600     -4.90939000     -0.89836500
  O      0.18047000     -6.12038000     -1.27189000
  C     -2.15327000     -4.21710000      2.46346000
  O     -2.56665000     -5.26250000      3.12084000
  C      1.08854000      5.39730000      0.50102700
  O      1.56737000      6.60322000      0.27149600
  C      5.00754000     -1.27992000      0.43224600
  O      6.28893000     -1.38602000      0.51180300
  C      5.00533000      1.95367000      0.01373860
  O      6.18213000      2.40731000      0.06595440
  C     -1.91246000     -3.53826000     -3.38514000
  O     -2.38717000     -4.41925000     -4.22421000
  C     -1.08408000     -0.97872900     -4.95759000
  O     -1.31510000     -1.24377000     -6.24690000
  C      4.30114000      0.57842100      2.79294000
  O      5.44913000      0.74973700      3.30218000
  C     -2.61914000      5.18353000     -0.26569300
  O     -2.69169000      6.45600000     -0.46167200
  C     -4.81609000      0.83104700     -0.51119100
  O     -6.12546000      0.88469300     -0.83001400
  C      1.07483000     -4.49280000      1.84004000
  O      1.33759000     -5.55431000      2.53565000
  C     -2.30006000      2.45269000      4.14619000
  O     -3.02569000      3.08464000      5.04855000
  C      2.13600000     -0.40023200      4.88796000
  O      2.77134000     -0.46439400      6.00598000
  C      4.23035000     -2.43881000     -2.90767000
  O      5.22449000     -3.07760000     -3.46827000
