110
Energy = -12251.13368515 au
 Ni      2.03316000     -3.96316000      0.49831800
 Ni      1.56961000     -0.55004100     -1.06141000
 Ni     -0.44108300     -4.59794000     -0.35441000
 Ni      0.09403020      3.90270000     -0.16471400
 Ni      2.19801000      2.12083000     -0.19879900
 Ni      0.53985700      0.37566600     -3.51127000
 Ni     -0.83484300     -1.26332000     -1.71720000
 Ni     -2.47028000      2.96043000     -0.88360100
 Ni      2.66345000     -1.45456000      1.23241000
 Ni     -0.64501400     -1.31170000      2.93733000
 Ni      0.22268400     -2.18788000      0.47539700
 Ni      1.32898000     -3.08076000      2.77525000
 Ni     -0.16786900      1.25458000      3.77140000
 Ni     -4.12776000     -1.39685000      0.09134740
 Ni     -1.73636000     -0.43642200      0.60853200
 Ni      1.73434000     -0.72737200      3.74964000
 Ni      1.46279000      2.99537000      1.91060000
 Ni      3.39576000     -2.36127000     -1.15480000
 Ni     -3.05690000     -1.98412000      2.25250000
 Ni      1.10492000     -3.29605000     -2.04767000
 Ni     -2.76269000      0.43646400      2.90051000
 Ni      0.72491000      0.30334000      1.32316000
 Ni      4.14877000      0.09347840     -0.30102700
 Ni      2.46967000     -1.36164000     -3.52284000
 Ni     -3.95949000      1.42783000      0.77875600
 Ni     -2.84182000      0.50737400     -1.53858000
 Ni     -1.14753000     -3.78075000      1.99685000
 Ni     -1.41644000     -3.70162000     -2.54050000
 Ni      0.99590100      2.89034000     -2.59690000
 Ni     -1.29437000      2.08836000      1.41599000
 Ni     -1.40299000      2.08566000     -3.17547000
 Ni     -1.97299000     -0.40783100     -3.96682000
 Ni      3.19075000      0.99475600      1.94825000
 Ni     -0.35651500      1.23590000     -0.95774400
 Ni     -0.19978400     -2.26328000     -4.11482000
 Ni     -3.23652000     -2.17370000     -2.43837000
 Ni      3.02830000      1.10965000     -2.52442000
 Ni     -2.50588000     -3.09719000      0.00600532
  C      1.17464000      2.35359000     -4.53304000
  O      1.42136000      2.87500000     -5.74056000
  C     -3.97644000      0.44468900     -3.33180000
  O     -5.16841000      0.80352100     -3.81176000
  C      3.96572000     -3.80378000      0.83931400
  O      4.93466000     -4.68130000      1.08336000
  C      4.96464000     -1.22730000     -1.54492000
  O      6.25210000     -1.58507000     -1.81615000
  C     -1.43418000      1.03146000     -5.28580000
  O     -1.79762000      1.34498000     -6.53519000
  C      4.25278000      2.23919000      2.96818000
  O      5.39060000      2.50415000      3.47206000
  C      0.90300600      5.30701000      0.73143300
  O      0.82008900      6.60860000      0.77943600
  C     -2.29445000      4.74741000     -0.20017100
  O     -3.04084000      5.82657000     -0.25209400
  C     -2.57791000     -2.19561000     -4.30649000
  O     -3.32138000     -2.59758000     -5.37504000
  C      0.18129200     -1.24003000      5.33318000
  O      0.19450700     -1.73866000      6.51409000
  C      1.14908000     -1.01136000     -4.81389000
  O      1.35872000     -0.94118700     -6.10396000
  C      1.35680000     -4.90807000     -0.98170600
  O      1.81604000     -6.05341000     -1.41634000
  C     -5.10260000     -2.09993000     -1.66616000
  O     -6.32082000     -2.54201000     -2.03481000
  C     -4.87509000      2.55298000     -0.49694000
  O     -6.07479000      3.06671000     -0.65710300
  C      2.93545000      3.71927000      0.71862600
  O      3.84318000      4.70464000      0.57007500
  C     -0.09597090     -4.03874000     -3.81508000
  O     -0.08574990     -5.02997000     -4.63840000
  C     -3.43389000     -1.06009000      4.20819000
  O     -4.25351000     -1.17221000      5.25116000
  C      5.00794000      1.73093000     -0.70054700
  O      6.27031000      2.05978000     -0.83204900
  C     -3.79920000     -3.30527000      1.16257000
  O     -4.67905000     -4.16481000      1.51775000
  C     -2.69430000     -4.24944000     -1.57538000
  O     -3.47523000     -5.28184000     -1.60183000
  C      0.07819120      4.54465000     -2.42111000
  O      0.23961000      5.71511000     -3.06870000
  C      3.95096000      0.07752340     -4.03722000
  O      4.81639000      0.32086900     -5.03241000
  C      1.74294000      0.94460800      4.81246000
  O      2.26377000      1.34609000      5.98666000
  C     -4.24107000      2.09356000      2.61303000
  O     -5.15542000      2.79711000      3.28899000
  C     -4.96904000     -0.08837360      1.23930000
  O     -6.30258000     -0.15106200      1.62197000
  C      1.39454000      3.96088000      3.59350000
  O      1.90783000      4.90085000      4.27072000
  C      5.06842000     -0.57020200      1.51780000
  O      6.24038000     -0.95643000      1.99239000
  C     -1.98271000     -5.43500000      1.26472000
  O     -1.87300000     -6.76589000      1.43237000
  C     -2.64518000      3.54080000     -3.14317000
  O     -3.20993000      4.40098000     -3.98231000
  C      1.45858000     -4.99359000      2.55443000
  O      1.93428000     -5.93926000      3.37503000
  C     -1.42532000     -3.59820000      3.83830000
  O     -1.99646000     -4.25781000      4.84404000
  C     -1.05231000      2.57530000      4.68959000
  O     -1.18904000      2.82795000      5.94959000
  C      3.09423000      3.21467000     -2.61536000
  O      3.92320000      4.10765000     -3.20700000
  C      3.05231000     -2.38681000      4.03576000
  O      3.79625000     -2.84595000      5.03475000
  C      3.03923000     -3.36663000     -3.30824000
  O      3.65883000     -4.30441000     -4.09057000
  C     -2.41368000      4.26932000      2.62353000
  O     -2.40950000      5.25640000      3.45106000
