110
Energy = -10190.01866385 au
 Ni     11.16990000     -6.92692000     -1.07066000
 Ni      9.73321000     -5.52506000     -4.16892000
 Ni     13.49640000     -7.05634000     -2.18664000
 Ni      7.66682000     -6.49361000     -8.08719000
 Ni      7.58603000     -5.93653000     -5.53311000
 Ni     10.43290000     -3.73043000     -5.84178000
 Ni     12.00760000     -5.66851000     -5.29809000
 Ni      9.99346000     -6.62313000     -9.20335000
 Ni      9.01584000     -7.32511000     -2.48173000
 Ni     10.73050000     -9.81942000     -4.43255000
 Ni     11.30570000     -7.46743000     -3.60164000
 Ni     10.57390000     -9.29907000     -1.90334000
 Ni      8.56396000    -10.26300000     -5.80285000
 Ni     13.75430000     -8.19510000     -7.26597000
 Ni     11.44230000     -8.02565000     -6.11086000
 Ni      8.40949000     -9.71170000     -3.28669000
 Ni      6.97591000     -8.30569000     -6.35824000
 Ni      9.56880000     -4.94995000     -1.62403000
 Ni     13.03930000    -10.00590000     -5.57311000
 Ni     11.86240000     -5.11971000     -2.79664000
 Ni     10.88760000    -10.41420000     -6.95409000
 Ni      9.15599000     -7.88043000     -4.97533000
 Ni      7.50392000     -5.34296000     -3.01546000
 Ni     10.27370000     -3.13803000     -3.31956000
 Ni     11.60110000     -8.59904000     -8.64562000
 Ni     12.14900000     -6.22712000     -7.79112000
 Ni     12.89210000     -9.42538000     -3.03188000
 Ni     14.18720000     -5.24419000     -3.91565000
 Ni      8.27081000     -4.12416000     -7.24255000
 Ni      9.30118000     -8.43035000     -7.47704000
 Ni     10.58950000     -4.25063000     -8.37109000
 Ni     12.75390000     -3.83824000     -6.98740000
 Ni      6.83430000     -7.74166000     -3.83901000
 Ni      9.85751000     -6.08285000     -6.67257000
 Ni     12.59940000     -3.28705000     -4.47113000
 Ni     14.32850000     -5.80451000     -6.43289000
 Ni      8.12622000     -3.54350000     -4.70316000
 Ni     13.57770000     -7.61285000     -4.73839000
  C      4.40710000     -1.67020000      4.77987000
  O      5.33819000     -1.89555000      5.63934000
  C      0.57873800      6.11848000     -4.70446000
  O      0.37174500      5.53661000     -5.83362000
  C     -4.80597000     -2.91169000     -3.46806000
  O     -5.82960000     -3.44871000     -4.03412000
  C      6.00053000     -0.75410200     -7.27647000
  O      6.59160000     -0.53515400     -8.39864000
  C     -4.46510000      1.34624000      1.78135000
  O     -5.62453000      1.67373000      2.24044000
  C      0.89368800     -3.37924000     -4.72781000
  O      1.41501000     -4.09803000     -5.65827000
  C     -3.41863000     -0.72791700      7.58051000
  O     -3.56315000     -1.25607000      8.74517000
  C     -7.92959000      3.26072000     -1.87363000
  O     -7.61391000      4.37864000     -1.31945000
  C     -6.25039000     -0.75966200      1.54800000
  O     -7.09634000     -1.24506000      0.70983300
  C      0.33739600     -0.96113100     -6.01077000
  O      0.95515900     -0.26845000     -6.94500000
  C     -2.38775000      2.47529000      5.05381000
  O     -3.21986000      2.47554000      6.03974000
  C     -0.23288000      2.73526000      4.46398000
  O     -0.14175900      3.66203000      5.35395000
  C      6.32138000      4.93016000      5.11553000
  O      6.42666000      5.10770000      6.38584000
  C      0.05815190      1.16683000      6.62208000
  O      1.03085000      1.26052000      7.45856000
  C     -3.08780000     -5.97570000     -1.60766000
  O     -2.84535000     -6.51870000     -2.74795000
  C      2.16428000      5.84901000      0.93541000
  O      1.97999000      6.61797000      1.95178000
  C      5.62451000     -3.75729000     -1.06664000
  O      5.40141000     -4.77563000     -2.01173000
  C     -5.20916000      2.56018000     -7.43397000
  O     -5.11740000      2.55195000     -8.71765000
  C     -0.39523200     -1.93829000     -6.38450000
  O     -1.23322000     -2.83763000     -6.79247000
  C      3.66787000      3.57092000      0.31328300
  O      4.54124000      4.51657000      0.33198500
  C      1.16279000     -3.36264000      4.02134000
  O      1.37102000     -4.00761000      5.12313000
  C      2.43499000     -5.35627000      3.23594000
  O      3.56125000     -5.97395000      3.17034000
  C     -4.47068000     -4.94142000      6.35818000
  O     -4.05799000     -6.13353000      6.10316000
  C      2.90399000      3.85046000     -5.11928000
  O      4.11786000      4.16800000     -4.83344000
  C      1.25963000      7.94714000     -0.19026100
  O      1.33990000      7.98652000     -1.47306000
  C      1.57764000     -4.27051000     -1.61547000
  O      2.09428000     -5.41450000     -1.90067000
  C     -2.40857000      3.78482000     -3.17750000
  O     -2.92760000      4.67922000     -3.94403000
  C      4.79378000      1.04702000     -1.06008000
  O      5.94182000      1.61704000     -1.17884000
  C     -3.27502000     -3.75103000      0.19151100
  O     -4.11298000     -4.74678000      0.21887600
  C     -4.81481000     -1.29160000      4.70821000
  O     -5.84266000     -2.05775000      4.82424000
  C     -8.31006000     -0.69101300     -3.84250000
  O     -8.71630000      0.38924900     -4.41216000
  C     -2.42606000      6.62800000      1.89617000
  O     -2.92694000      6.74111000      3.07621000
  C     -5.22609000      7.45610000     -0.44584400
  O     -4.01544000      7.88873000     -0.50450900
  C     -2.62247000     -7.75505000      3.10950000
  O     -1.75515000     -8.14288000      2.24138000
  C      8.37962000     -0.31225600      4.98055000
  O      8.63663000      0.67986000      4.20220000
  C      6.38645000     -2.69448000     -0.31955400
  O      7.03031000     -2.50460000      0.78951800
