110
Energy = -12575.68649504 au
 Ni     -0.37219500     -3.45979000     -2.60345000
 Ni     -1.64157000     -0.20820800     -1.54972000
 Ni     -0.01184480     -4.19288000     -0.12412800
 Ni     -0.43901700      4.21294000     -0.67208700
 Ni     -1.38957000      2.41044000     -2.47216000
 Ni     -3.57966000      0.77816900      0.37503700
 Ni     -1.23699000     -0.87852100      0.91970300
 Ni     -0.14460700      3.58094000      1.94767000
 Ni      0.06471380     -1.12774000     -3.58235000
 Ni      2.82145000     -0.70798100     -1.09067000
 Ni      0.37865900     -1.70801000     -0.93343600
 Ni      2.19540000     -2.46944000     -2.73927000
 Ni      3.25867000      1.84223000     -1.90229000
 Ni      1.64914000     -0.63324600      3.46877000
 Ni      1.16900000      0.09131270      0.80609000
 Ni      2.43552000      0.04023590     -3.56800000
 Ni      1.20155000      3.24192000     -2.44754000
 Ni     -2.45379000     -2.00251000     -3.33181000
 Ni      3.32880000     -1.38694000      1.53146000
 Ni     -2.14631000     -2.85707000     -0.78826900
 Ni      3.69591000      1.15349000      0.71509700
 Ni      0.74619700      0.76848400     -1.69489000
 Ni     -2.02071000      0.30012800     -4.09171000
 Ni     -4.05146000     -1.23232000     -1.54454000
 Ni      2.04041000      1.97108000      2.57723000
 Ni     -0.47061500      0.98598100      2.73047000
 Ni      2.48103000     -3.17457000     -0.24517900
 Ni     -1.63785000     -3.50794000      1.84912000
 Ni     -2.94830000      3.19212000     -0.58170100
 Ni      1.58314000      2.58798000      0.06677060
 Ni     -2.72052000      2.53109000      2.05569000
 Ni     -2.86386000     -0.04762890      2.75639000
 Ni      0.43658100      1.38486000     -4.26937000
 Ni     -0.88019300      1.61287000      0.16370500
 Ni     -3.59417000     -1.87109000      1.04956000
 Ni     -0.76358100     -1.55663000      3.55323000
 Ni     -3.74504000      1.28775000     -2.21774000
 Ni      0.80529300     -2.41015000      1.61344000
  C     -3.85974000      1.50395000      3.09251000
  O     -4.79665000      1.77425000      3.95189000
  C     -1.35872000      1.90882000     -5.20133000
  O     -1.54060000      2.18190000     -6.52391000
  C     -2.17353000      5.08224000     -0.23976400
  O     -2.63692000      6.35025000     -0.36332200
  C      2.03305000      4.62843000     -1.20117000
  O      2.75700000      5.74991000     -1.38315000
  C      4.50940000      2.89231000     -0.61619000
  O      5.67916000      3.47774000     -0.86289200
  C     -1.66419000     -5.45551000      0.31010900
  O     -1.47699000     -6.77346000      0.38039700
  C      1.62052000     -4.16072000      2.00074000
  O      1.95841000     -5.09510000      2.86629000
  C     -2.86920000     -1.86425000      3.86948000
  O     -3.54874000     -2.24685000      4.99948000
  C     -4.16400000      2.68766000      0.82584200
  O     -5.33043000      3.26774000      0.94629600
  C     -1.88921000      4.29121000      2.95005000
  O     -2.29235000      5.22753000      3.79725000
  C     -1.11382000     -4.21385000      3.88993000
  O     -1.60111000     -5.25034000      4.45649000
  C     -1.11980000      0.66560600      4.66461000
  O     -1.25627000      1.15491000      5.88145000
  C      3.25221000      3.40402000      1.87599000
  O      4.04688000      4.35855000      2.34556000
  C     -3.28638000     -3.71680000      0.77195400
  O     -4.17778000     -4.65483000      0.84085000
  C      4.92159000     -0.32948300     -0.28895600
  O      6.21167000     -0.55587900     -0.56847600
  C      1.10609000     -3.51277000     -4.22343000
  O      1.40429000     -4.51065000     -5.10309000
  C      4.48102000      0.54582400      2.51035000
  O      5.69322000      0.77093600      3.01974000
  C     -3.90499000     -3.09838000     -2.50853000
  O     -5.12463000     -3.47498000     -2.81505000
  C     -4.96555000      0.44338400     -1.02081000
  O     -6.26317000      0.64905800     -1.07914000
  C      0.79332100      3.10973000      3.85443000
  O      1.03262000      3.92170000      4.93831000
  C     -3.94150000     -0.07965190     -3.60197000
  O     -4.82805000     -0.06102250     -4.55280000
  C     -3.24501000      3.03511000     -2.43598000
  O     -3.84627000      3.86341000     -3.23969000
  C      1.21993000     -0.42888200     -4.92645000
  O      1.53502000     -0.88992500     -6.10108000
  C      0.84049700     -2.02355000      4.99862000
  O      1.01679000     -2.41427000      6.20503000
  C      4.26226000     -2.37611000     -2.44644000
  O      5.11906000     -2.90450000     -3.28081000
  C      2.32768000      0.97966100      4.50633000
  O      2.87238000      1.21658000      5.70096000
  C     -2.34274000     -4.00979000     -2.52634000
  O     -2.46324000     -5.31269000     -2.92214000
  C      0.72150800      5.23808000      1.09702000
  O      0.87354200      6.48329000      1.53605000
  C      3.26739000     -2.04767000      3.52332000
  O      4.14941000     -2.49476000      4.41895000
  C      1.85726000     -4.85217000     -1.32067000
  O      2.47044000     -6.05189000     -1.42083000
  C     -0.49734100      4.09376000     -2.69028000
  O     -0.76003500      5.02268000     -3.55870000
  C     -5.13199000     -0.80974400      1.41439000
  O     -6.39145000     -1.05455000      1.79101000
  C     -1.43519000     -1.50017000     -4.77022000
  O     -1.44365000     -2.15506000     -5.91285000
  C      4.53105000      0.56810800     -3.09493000
  O      5.45737000      0.76082400     -4.04336000
  C      2.18847000      2.42359000     -3.95361000
  O      2.77922000      3.10119000     -4.89715000
  C      4.40403000     -3.06922000      0.68831500
  O      5.45482000     -3.85070000      0.92730500
