#B3LYP/6-31+G(d) OPT FREQ

110, Energy = -12779.30478434 au

0 1
 Ni      2.51109000     -1.24765000     -3.20024000
 Ni     -0.31195200     -1.97270000     -0.83608700
 Ni      3.97454000     -0.40961200     -1.23885000
 Ni     -4.26106000     -0.36766900      0.92017900
 Ni     -3.28733000     -1.70270000     -1.03295000
 Ni     -0.56824500     -3.06000000      1.56369000
 Ni      1.05492000     -1.00708000      1.10816000
 Ni     -2.77497000      0.67836000      2.89880000
 Ni     -0.10971300     -1.03528000     -3.45673000
 Ni      0.33753200      2.43670000     -1.93232000
 Ni      1.30006000     -0.01268800     -1.27869000
 Ni      1.58843000      1.08093000     -3.72806000
 Ni     -2.34223000      2.69119000     -1.91432000
 Ni      1.47170000      2.36057000      2.59393000
 Ni      0.08328790      1.35373000      0.58243200
 Ni     -0.98032500      1.38607000     -3.83340000
 Ni     -4.06777000      0.74487300     -1.44693000
 Ni      0.97239200     -3.36258000     -2.60709000
 Ni      1.71309000      3.44527000      0.14897800
 Ni      2.51600000     -2.41521000     -0.75205200
 Ni     -0.85812800      3.76122000      0.08652450
 Ni     -1.27681000      0.34152900     -1.38124000
 Ni     -1.68815000     -3.02391000     -2.76470000
 Ni      0.71145500     -4.34297000     -0.32785700
 Ni     -1.13831000      2.74939000      2.52215000
 Ni     -0.15271400      0.29230700      3.10481000
 Ni      2.92392000      2.01472000     -1.66755000
 Ni      3.80413000     -1.39266000      1.13215000
 Ni     -3.16543000     -2.59112000      1.55305000
 Ni     -2.57575000      1.67870000      0.43094300
 Ni     -1.78319000     -1.61695000      3.46684000
 Ni      0.77792300     -1.97852000      3.61418000
 Ni     -2.71192000     -0.63998900     -3.41725000
 Ni     -1.54214000     -0.65223700      1.00665000
 Ni      2.03994000     -3.40069000      1.67212000
 Ni      2.48304000     -0.02114430      3.08027000
 Ni     -1.98775000     -3.94764000     -0.43710300
 Ni      2.66732000      0.99401200      0.68443500
  C     -1.91991000      1.54381000      4.52141000
  O     -2.36339000      1.90332000      5.73299000
  C     -0.48349600     -1.13473000      4.80649000
  O     -0.56668600     -1.11893000      6.09427000
  C      4.93632000      1.18199000     -0.67298500
  O      6.24836000      1.49425000     -0.76733600
  C      2.30848000     -4.19520000     -1.33395000
  O      3.21533000     -5.09275000     -1.57855000
  C     -2.93478000      4.08429000      0.04961320
  O     -3.82342000      5.08376000      0.15320600
  C      0.89493200     -4.22547000      3.30545000
  O      1.04117000     -4.67657000      4.50419000
  C     -3.85290000     -0.89766800      3.03868000
  O     -4.81326000     -1.01965000      3.90152000
  C      3.64088000      1.94569000      2.82213000
  O      4.70986000      2.47853000      3.42797000
  C      0.11294500      5.39778000      0.17812100
  O     -0.02979460      6.69693000      0.18247200
  C     -5.32376000      0.63826600     -0.14853100
  O     -6.58288000      0.81858100     -0.09858920
  C     -4.37771000     -0.74550700     -2.56625000
  O     -5.47023000     -0.98282400     -3.22752000
  C      3.41144000      1.94332000     -3.58302000
  O      4.35534000      2.53795000     -4.36072000
  C      0.46873400      2.47128000     -4.27606000
  O      0.65269100      3.24388000     -5.29660000
  C      1.65644000     -2.72094000     -4.52808000
  O      2.02480000     -3.73412000     -5.36078000
  C      1.09267000      1.89608000      4.48364000
  O      1.28983000      2.34614000      5.72134000
  C      4.51776000     -2.09479000     -0.63321700
  O      5.60778000     -2.70643000     -0.96967100
  C     -2.37689000     -3.78740000      3.04527000
  O     -2.75258000     -4.23226000      4.20150000
  C     -1.44364000      4.12686000     -2.79031000
  O     -1.77176000      5.19408000     -3.49379000
  C      4.33912000     -0.69636500     -3.52172000
  O      5.21690000     -0.97952100     -4.48057000
  C     -2.68344000      0.95438500     -4.76622000
  O     -3.13290000      1.15602000     -6.03036000
  C     -2.44391000     -4.63217000      1.62196000
  O     -2.84872000     -5.83329000      1.34843000
  C     -3.26151000     -3.44197000     -1.81578000
  O     -4.22211000     -4.13765000     -2.35083000
  C     -3.95730000      2.12026000      2.25140000
  O     -5.02858000      2.82260000      2.66845000
  C      1.58512000      4.27911000      2.29691000
  O      2.06202000      5.32470000      2.98287000
  C      4.94455000     -0.26509400      2.16089000
  O      6.14625000     -0.54851500      2.61714000
  C      1.74375000      4.27494000     -1.94037000
  O      2.04877000      5.39141000     -2.59956000
  C      3.95090000     -3.36988000      1.93576000
  O      4.83032000     -4.24857000      2.47174000
  C      0.91902500     -0.26104200     -4.83341000
  O      1.06416000     -0.43063800     -6.10575000
  C     -4.13702000      2.39105000     -2.30708000
  O     -5.11758000      3.00126000     -2.86825000
  C      0.77535800     -5.01964000      1.88557000
  O      0.83701000     -6.28380000      1.58972000
  C     -1.64564000     -1.94869000     -4.29883000
  O     -1.85402000     -2.44790000     -5.48153000
  C      3.70884000      3.57096000      0.00326466
  O      4.61018000      4.54208000      0.07759710
  C     -4.63608000     -2.15983000      0.45062100
  O     -5.74350000     -2.83547000      0.54255000
  C      2.65612000     -1.22063000      4.67782000
  O      3.39100000     -1.39156000      5.76580000
  C     -0.58458100     -4.64567000     -2.07693000
  O     -0.66714100     -5.83385000     -2.59394000
  C     -1.58323000      4.53855000      2.90443000
  O     -1.85661000      5.38983000      3.82128000

