110
Energy = -12547.35664650 au
 Ni      1.07911000     -3.05533000     -2.10990000
 Ni     -1.53451000     -0.62885600     -0.97057600
 Ni      1.72227000     -3.56789000      0.34797900
 Ni     -2.27541000      3.82865000      0.04105920
 Ni     -2.34377000      1.64564000     -1.81792000
 Ni     -3.65825000     -0.76389200      0.85962300
 Ni     -0.90219300     -1.03630000      1.48773000
 Ni     -1.68381000      3.36438000      2.37989000
 Ni      0.28026200     -0.66497300     -2.86214000
 Ni      2.68703000      0.80988600     -0.50061300
 Ni      0.94949300     -1.10146000     -0.35740000
 Ni      2.84857000     -1.18029000     -2.28348000
 Ni      1.93230000      3.20180000     -1.41031000
 Ni      1.50283000      0.40296400      3.91360000
 Ni      0.83546300      0.85889200      1.35158000
 Ni      2.02231000      1.42255000     -3.02425000
 Ni     -0.44904700      3.67745000     -1.98368000
 Ni     -1.43957000     -2.55822000     -2.73117000
 Ni      3.35349000      0.42359600      2.04015000
 Ni     -0.76855900     -3.00975000     -0.18597800
 Ni      2.66922000      2.84313000      1.22860000
 Ni      0.19414300      1.28788000     -1.11394000
 Ni     -2.29025000     -0.19892800     -3.56585000
 Ni     -3.34334000     -2.54369000     -0.91051300
 Ni      0.78158400      2.86471000      3.09361000
 Ni     -1.09746000      0.92840600      3.51223000
 Ni      3.49574000     -1.63731000      0.19710800
 Ni     -0.07550790     -3.48156000      2.24479000
 Ni     -4.03818000      1.78405000      0.15543200
 Ni      0.11150500      3.36732000      0.68513100
 Ni     -3.50537000      1.28793000      2.60313000
 Ni     -2.86518000     -1.05009000      3.41262000
 Ni     -0.36266200      1.79929000     -3.62980000
 Ni     -1.62755000      1.31085000      0.73444500
 Ni     -2.62582000     -3.01594000      1.61200000
 Ni     -0.16767900     -1.62510000      4.04496000
 Ni     -4.05181000     -0.18485400     -1.61115000
 Ni      1.60311000     -1.62359000      2.17767000
  C     -4.43546000      2.84510000     -1.47395000
  O     -5.63589000      3.36001000     -1.75362000
  C     -3.24356000      0.55687400      4.26107000
  O     -3.95687000      0.80602800      5.30556000
  C      2.94087000     -1.05955000      4.13625000
  O      3.59456000     -1.52179000      5.20990000
  C     -1.15547000      4.79808000      1.29211000
  O     -1.09693000      6.02674000      1.70285000
  C      3.60479000     -1.55255000     -4.07836000
  O      4.45115000     -1.74787000     -4.98821000
  C     -4.06979000     -2.05716000      2.30614000
  O     -5.17966000     -2.62805000      2.66938000
  C     -0.88766300      2.87377000      3.99811000
  O     -1.11113000      3.48753000      5.12173000
  C      2.14539000      4.58708000      2.00846000
  O      2.63605000      5.60489000      2.71310000
  C      0.71445500      3.40660000     -3.42495000
  O      0.91276100      4.30662000     -4.34486000
  C      0.92071400      5.06686000     -0.78477300
  O      1.17831000      6.39230000     -0.94371000
  C     -0.68076200     -4.49717000     -2.26333000
  O     -0.82862100     -5.73467000     -2.78138000
  C      0.70505100     -5.18536000      0.57010900
  O      0.92556800     -6.49616000      0.57948800
  C      4.72504000     -2.29055000     -1.21222000
  O      5.84604000     -2.93952000     -1.38892000
  C      4.28362000      2.32430000      2.57106000
  O      5.50489000      2.76428000      2.83439000
  C      3.20712000     -3.64547000      1.62132000
  O      4.03217000     -4.59660000      2.07831000
  C     -0.00544249      0.01658730      4.94008000
  O     -0.09482070      0.15338600      6.22946000
  C     -1.33187000     -0.37376200     -5.26342000
  O     -1.82957000     -0.54576600     -6.45175000
  C      1.10457000      0.74437600     -4.92001000
  O      1.43423000      0.86060000     -6.21627000
  C     -4.93253000     -1.59810000     -0.83633400
  O     -6.14478000     -1.99859000     -1.02156000
  C      5.01584000      1.15782000     -1.10066000
  O      6.28668000      1.00410000     -1.23313000
  C     -3.61493000      3.24276000      1.78850000
  O     -4.47152000      4.06926000      2.30673000
  C     -4.85365000      0.61458700      1.37946000
  O     -6.13072000      0.55691100      1.62155000
  C      2.53646000     -4.27183000     -1.87296000
  O      3.13784000     -5.22684000     -2.55319000
  C      1.94704000      2.22936000      4.69159000
  O      2.64570000      2.74997000      5.71879000
  C     -2.27820000      4.77896000     -1.72131000
  O     -2.75397000      6.00277000     -2.04536000
  C     -1.67329000     -4.69889000      2.14607000
  O     -2.06308000     -5.85417000      2.76114000
  C      3.82998000      3.48587000     -0.80121000
  O      4.69937000      4.48738000     -0.88808500
  C      3.81132000      2.07546000     -3.09019000
  O      4.56726000      2.57042000     -4.02793000
  C     -4.03505000      0.38645500     -3.33633000
  O     -5.04097000      0.55965800     -4.11337000
  C      0.65802300     -2.54692000     -4.22758000
  O      0.84053500     -3.02793000     -5.45383000
  C     -1.95587000     -2.48724000      4.41849000
  O     -2.40440000     -3.02881000      5.61097000
  C     -3.11246000     -4.39081000     -0.25314000
  O     -3.88228000     -5.46938000     -0.49669600
  C      4.78615000     -1.00165000      1.84229000
  O      6.00164000     -1.25715000      2.34509000
  C      0.82172000     -3.18949000      3.84127000
  O      1.23747000     -4.08641000      4.67017000
  C     -3.28495000     -2.67916000     -3.42348000
  O     -3.88901000     -3.41922000     -4.36077000
  C     -2.19609000      2.73327000     -3.84518000
  O     -2.83968000      3.34410000     -4.85749000
