#B3LYP/6-31+G(d) OPT FREQ

110, Energy = -12354.82394736 au

0 1
 Ni      3.15405000     -2.30277000     -1.70944000
 Ni     -0.34923900     -1.10329000     -1.85078000
 Ni      2.87530000     -2.84566000      0.92460100
 Ni     -3.00064000      2.60787000     -1.65979000
 Ni     -1.66640000      0.93148600     -3.04930000
 Ni     -2.72714000     -2.04135000     -0.92912400
 Ni     -0.63560600     -1.50853000      0.67059900
 Ni     -3.27427000      2.17135000      0.95285200
 Ni      2.13205000     -0.32689800     -2.94350000
 Ni      2.48489000      1.65711000      0.23951500
 Ni      1.64835000     -0.74849600     -0.25729100
 Ni      3.98984000     -0.01385070     -1.28135000
 Ni      1.31405000      3.70592000     -0.89783600
 Ni     -0.15808400      0.52684500      3.81950000
 Ni      0.19447700      0.86990700      1.14235000
 Ni      2.79516000      2.04374000     -2.40311000
 Ni     -0.78524100      3.32899000     -2.57190000
 Ni      1.10514000     -2.65466000     -3.31382000
 Ni      2.27637000      1.27958000      2.79878000
 Ni      0.81831400     -3.11877000     -0.71473400
 Ni      1.02198000      3.29594000      1.69507000
 Ni      0.47923700      1.26941000     -1.37478000
 Ni      0.01748620     -0.75081200     -4.40950000
 Ni     -1.26438000     -3.47136000     -2.36472000
 Ni     -1.29231000      2.51172000      2.64975000
 Ni     -2.13001000      0.12707100      2.18266000
 Ni      3.68617000     -0.36979900      1.35843000
 Ni      0.55205600     -3.58219000      1.79339000
 Ni     -3.80960000      0.14016700     -2.13724000
 Ni     -0.96086900      2.89943000      0.06254840
 Ni     -4.11630000     -0.31693800      0.50737300
 Ni     -2.90313000     -2.41265000      1.57067000
 Ni      0.87747500      1.67850000     -3.93400000
 Ni     -1.80070000      0.50948300     -0.45144800
 Ni     -1.57037000     -3.93483000      0.23069700
 Ni     -0.97502400     -1.97582000      3.27049000
 Ni     -2.43542000     -1.48723000     -3.43730000
 Ni      1.38989000     -1.12559000      2.26370000
  C     -0.49109800      2.73885000      4.50028000
  O     -0.68173800      3.47396000      5.57993000
  C      1.77710000     -1.26367000     -4.57897000
  O      2.47497000     -1.54341000     -5.63727000
  C      4.24045000     -1.10930000     -2.80806000
  O      5.29666000     -1.31482000     -3.52077000
  C     -3.37661000     -3.90626000      0.30233800
  O     -4.29965000     -4.78489000      0.39051000
  C      2.67591000      4.17266000      1.06761000
  O      3.38487000      5.26689000      1.40942000
  C      0.58126000      3.84765000     -3.94941000
  O      0.62138900      4.64003000     -5.06324000
  C      1.66661000     -4.62953000     -2.51622000
  O      1.85018000     -5.44632000     -3.52986000
  C     -0.86580000      1.37123000     -5.32540000
  O     -0.79484400      1.14102000     -6.65065000
  C     -0.11529900      5.11048000     -1.29804000
  O     -0.14195500      6.42768000     -1.51904000
  C      3.53926000     -3.05228000      2.78953000
  O      4.45000000     -3.95097000      3.02553000
  C      1.11635000     -3.03547000      3.82679000
  O      1.50673000     -3.75654000      4.89702000
  C      4.38420000      1.75650000      1.95881000
  O      5.54307000      2.26740000      2.34444000
  C     -0.24750200      4.81081000      1.81016000
  O     -0.28928200      6.01578000      2.34105000
  C      3.85141000     -4.09649000     -0.69583200
  O      4.85906000     -4.84108000     -1.10713000
  C      3.06143000      4.07082000     -1.87278000
  O      3.72089000      5.13027000     -2.37375000
  C      4.81500000      1.91346000     -1.15051000
  O      6.04603000      2.30622000     -1.49870000
  C     -3.24953000     -3.09756000     -2.52110000
  O     -4.21204000     -3.77553000     -3.05695000
  C      3.44794000     -0.48423700      3.66555000
  O      4.23581000     -0.66017200      4.71638000
  C     -2.98224000      3.54458000      2.31263000
  O     -3.72566000      4.37996000      2.96332000
  C      2.75086000      1.46022000     -4.13705000
  O      3.55904000      1.70560000     -5.11230000
  C     -0.88328600     -2.52701000     -4.44703000
  O     -1.14949000     -3.16747000     -5.54270000
  C     -2.31931000     -2.17275000      4.57566000
  O     -2.66749000     -2.73643000      5.66844000
  C     -3.56552000     -0.01881840     -3.95275000
  O     -4.34635000      0.07188950     -4.97439000
  C     -2.37875000      2.89924000     -3.38053000
  O     -2.97777000      3.54593000     -4.32746000
  C     -0.88188600     -5.30659000     -1.44618000
  O     -1.29315000     -6.53289000     -1.80881000
  C      0.75503700     -0.23497100      5.62599000
  O      0.68737400     -0.17191100      6.88686000
  C     -4.33632000     -1.49075000      2.65996000
  O     -5.41670000     -2.03143000      3.22293000
  C     -1.14715000     -4.54883000      2.21008000
  O     -1.44909000     -5.72806000      2.86947000
  C      2.15565000      2.72635000      4.04664000
  O      2.80511000      3.33464000      4.99190000
  C     -5.26421000     -1.29497000     -0.87687400
  O     -6.55779000     -1.59632000     -1.04425000
  C     -5.02665000      1.15530000      1.49920000
  O     -6.26475000      1.50834000      1.88950000
  C     -2.86211000      4.34227000     -0.51128400
  O     -3.60031000      5.45769000     -0.57929800
  C     -2.69204000      0.79779300      4.13142000
  O     -3.52989000      0.86937700      5.10322000
  C      1.69747000     -5.04222000      0.44873800
  O      1.86113000     -6.34213000      0.62700800
  C      5.37609000     -1.12068000      0.11958500
  O      6.62530000     -1.28258000      0.51870700
  C     -4.95212000      1.82788000     -1.43468000
  O     -6.08797000      2.31430000     -1.96509000

