110
Energy = -11761.04730259 au
 Ni     -1.08143000     -3.12041000     -2.31056000
 Ni      1.40425000     -0.91446000     -0.68399200
 Ni     -2.81531000     -1.18951000     -2.41030000
 Ni      3.05466000      0.58014900      3.30994000
 Ni      3.05493000     -1.14093000      1.30224000
 Ni      2.21669000      1.48937000     -1.07050000
 Ni     -0.28238000      1.00910000     -0.72938300
 Ni      1.34552000      2.49856000      3.20943000
 Ni      0.59710800     -3.33051000     -0.30316100
 Ni     -1.95074000     -2.10899000      1.96974000
 Ni     -1.10205000     -1.40024000     -0.36414700
 Ni     -1.90721000     -3.84744000      0.05245520
 Ni     -0.31012800     -2.33682000      3.96094000
 Ni     -2.86939000      2.25217000      1.55665000
 Ni     -1.13837000      0.29920900      1.57487000
 Ni     -0.25328500     -4.06501000      2.03266000
 Ni      2.22725000     -1.84888000      3.62880000
 Ni      1.47142000     -2.64232000     -2.64620000
 Ni     -3.68172000     -0.17643000      1.93182000
 Ni     -0.24940100     -0.69843800     -2.65700000
 Ni     -1.99967000     -0.40810100      3.92307000
 Ni      0.54815300     -1.62513000      1.62239000
 Ni      3.12143000     -2.85423000     -0.65362700
 Ni      2.28532000     -0.22157600     -3.03555000
 Ni     -1.20190000      2.02588000      3.53293000
 Ni     -0.33425900      2.70765000      1.19344000
 Ni     -3.62018000     -1.89056000     -0.04812370
 Ni     -1.97150000      1.24727000     -2.74848000
 Ni      3.87653000      1.28329000      0.92345100
 Ni      0.51785600      0.08243470      3.58400000
 Ni      2.17711000      3.23359000      0.84790600
 Ni      0.52033000      3.47088000     -1.14633000
 Ni      2.26529000     -3.55537000      1.69560000
 Ni      1.36802000      0.78519900      1.25571000
 Ni      0.56868700      1.73620000     -3.07979000
 Ni     -2.00603000      2.97099000     -0.80492900
 Ni      3.93606000     -0.43349100     -1.04508000
 Ni     -2.79108000      0.50988000     -0.40745500
  C      3.98862000     -2.69980000      2.61380000
  O      4.69303000     -3.42721000      3.39082000
  C     -1.81798000     -5.20416000      1.53921000
  O     -2.01776000     -6.42988000      2.09085000
  C     -0.52948300     -0.30300200      5.38875000
  O     -0.79837400     -0.77541300      6.54974000
  C      2.33760000     -0.11772900      4.99116000
  O      3.11691000     -0.23363900      6.00428000
  C     -2.57455000     -2.84542000      3.68920000
  O     -3.26336000     -3.55127000      4.52842000
  C     -2.73131000      3.25839000      3.24301000
  O     -3.37105000      4.04754000      4.09323000
  C      5.05559000     -0.26015800      1.96096000
  O      6.22690000     -0.12998200      2.69446000
  C     -3.71131000     -3.90991000     -1.13248000
  O     -4.41242000     -5.03774000     -1.10274000
  C      0.27388500      4.38773000      2.68332000
  O      0.28993400      5.50947000      3.37319000
  C      3.30596000      3.07806000     -2.32240000
  O      4.17757000      3.79660000     -2.85501000
  C      4.89014000     -2.24091000      0.26247300
  O      6.08850000     -2.90603000     -0.05049790
  C      4.05297000     -2.25681000     -3.52571000
  O      4.61868000     -2.46581000     -4.66974000
  C     -4.03098000      0.48880900      3.87796000
  O     -4.59535000      0.49932800      5.10937000
  C      4.58792000      3.18756000      0.52377800
  O      5.84246000      3.54199000      0.74550700
  C     -2.54532000      3.74444000     -2.92913000
  O     -3.16795000      4.69942000     -3.54434000
  C      1.40272000     -5.24600000      0.56626400
  O      2.02959000     -6.27470000      1.15103000
  C     -0.58420800      2.32892000     -4.58981000
  O     -0.66766400      2.87143000     -5.75832000
  C      2.63684000      1.24993000     -4.40019000
  O      3.17803000      1.49930000     -5.56251000
  C     -4.72797000     -2.04701000      1.65001000
  O     -5.97729000     -2.63433000      1.92312000
  C      1.95033000      5.17737000      0.32350900
  O      2.76361000      6.18216000      0.44729500
  C      2.49135000     -4.62224000     -2.07629000
  O      3.45292000     -5.48871000     -2.32416000
  C     -0.98534300      5.02310000     -0.05486760
  O     -1.18547000      6.30291000     -0.08707130
  C     -2.36045000     -3.12678000     -3.83836000
  O     -3.05142000     -3.76167000     -4.77057000
  C     -0.06090160     -0.66484400     -5.00445000
  O     -0.08865430     -0.89134600     -6.25975000
  C      0.55715900      4.81046000     -2.92819000
  O      0.86176200      5.84718000     -3.53494000
  C      3.70016000      2.64530000      3.53641000
  O      4.22706000      3.41804000      4.48773000
  C     -5.21832000      1.29884000      1.07265000
  O     -6.39513000      1.41555000      1.59057000
  C      0.33286100     -3.11258000     -4.45924000
  O      0.65378900     -4.15201000     -5.17785000
  C     -4.53210000      1.66469000     -1.67240000
  O     -5.64807000      2.04502000     -2.13068000
  C     -4.64824000     -1.28081000     -1.72304000
  O     -5.88174000     -1.63158000     -2.18190000
  C      5.08832000      1.12241000     -1.80648000
  O      6.27478000      0.79627100     -2.21810000
  C     -3.40932000      0.28342700     -4.22070000
  O     -3.99814000      0.38393300     -5.35834000
  C      0.19616200      1.87621000      4.93061000
  O      0.18400700      2.49629000      6.05780000
  C     -3.75643000      3.95526000      0.32850000
  O     -4.64944000      4.87858000      0.48715900
  C     -0.18787900     -5.02449000     -1.33084000
  O     -0.44501600     -6.27417000     -1.84465000
  C      1.11470000     -3.77184000      3.76353000
  O      1.16923000     -4.45638000      4.87273000
