#B3LYP/6-31+G(d) OPT FREQ

110, Energy = -12294.20141749 au

0 1
 Ni     -3.31139000     -1.20906000     -1.80608000
 Ni     -0.57459600      1.31701000     -0.74979100
 Ni     -3.64927000     -1.87637000      0.70372700
 Ni      3.90582000      2.05668000      0.09508150
 Ni      1.84725000      1.98428000     -1.58340000
 Ni     -0.41160100      3.27099000      1.16974000
 Ni     -0.93325500      0.67396600      1.74433000
 Ni      3.62535000      1.33589000      2.52367000
 Ni     -0.73226700     -0.51813800     -2.61808000
 Ni      0.69978900     -3.00377000     -0.31609000
 Ni     -1.16772000     -1.17008000     -0.11729000
 Ni     -1.39901000     -3.08450000     -2.12293000
 Ni      3.11730000     -2.43131000     -1.19387000
 Ni      0.46769600     -1.71386000      4.07848000
 Ni      0.86934700     -1.16068000      1.55574000
 Ni      1.05391000     -2.43188000     -2.88530000
 Ni      3.63849000      0.10091900     -1.78461000
 Ni     -2.70762000      1.34959000     -2.43785000
 Ni      0.33825200     -3.69032000      2.24094000
 Ni     -3.13610000      0.72466200      0.13906300
 Ni      2.73774000     -3.03884000      1.41486000
 Ni      1.26648000     -0.54423400     -0.93142000
 Ni     -0.16241700      2.01682000     -3.48446000
 Ni     -2.53585000      3.21382000     -0.54814800
 Ni      2.88358000     -1.24915000      3.21319000
 Ni      1.18590000      0.74968900      3.68876000
 Ni     -1.76624000     -3.73026000      0.49923800
 Ni     -3.42279000     -0.00120266      2.62947000
 Ni      2.04765000      3.84446000      0.21907700
 Ni      3.29901000     -0.57073900      0.75840000
 Ni      1.58319000      3.19456000      2.67782000
 Ni     -0.67020800      2.48718000      3.72736000
 Ni      1.65583000      0.12402800     -3.51448000
 Ni      1.46971000      1.29577000      0.92369700
 Ni     -2.90007000      2.52816000      1.97479000
 Ni     -1.52515000      0.11188500      4.20546000
 Ni      0.01712160      3.87262000     -1.49548000
 Ni     -1.58135000     -1.78947000      2.36314000
  C      1.17591000      2.57471000      4.42005000
  O      1.69244000      3.07099000      5.50072000
  C     -2.23572000      2.66806000      4.74703000
  O     -2.56966000      3.42333000      5.76874000
  C      4.84693000     -3.04781000     -0.59687000
  O      5.78340000     -3.85634000     -0.89426800
  C     -3.79792000     -2.91240000     -2.56845000
  O     -4.73771000     -3.41915000     -3.34136000
  C     -4.17500000     -2.26132000      2.61697000
  O     -5.15820000     -2.98808000      3.17337000
  C      5.27484000      0.12301800     -0.63623300
  O      6.60650000      0.08201370     -0.87101000
  C      1.31790000      5.46195000     -0.70614500
  O      1.70626000      6.71781000     -0.95396000
  C     -3.43375000      0.25194700      4.74448000
  O     -4.28113000      0.27181400      5.77845000
  C     -4.23320000      0.22679400     -3.21499000
  O     -5.37687000      0.43681400     -3.86465000
  C      1.97647000     -4.91796000      1.12156000
  O      2.60964000     -6.08358000      1.28603000
  C     -5.15025000     -0.82623500     -0.23481000
  O     -6.47720000     -0.96840300     -0.36178500
  C     -4.41844000      1.40298000      1.79291000
  O     -5.68133000      1.59563000      1.98339000
  C      1.17082000     -1.46575000     -4.81006000
  O      1.50308000     -1.87127000     -6.04307000
  C     -0.61830100     -4.95659000     -1.04776000
  O     -0.51818700     -6.27901000     -1.26183000
  C      0.03407920      5.16966000      1.81298000
  O     -0.15574100      6.17740000      2.60084000
  C      4.60291000     -2.49480000      2.08467000
  O      5.68278000     -2.96058000      2.71405000
  C     -0.87851800     -3.59350000     -3.95605000
  O     -1.17322000     -4.58437000     -4.75670000
  C     -3.01089000      4.48820000      1.42226000
  O     -3.86621000      5.36989000      1.93332000
  C     -1.97349000     -0.99192300     -4.87204000
  O     -2.38644000     -1.01629000     -6.09138000
  C      5.48122000      0.84578000      2.15605000
  O      6.58150000      1.29280000      2.68236000
  C      0.87794800      3.88228000     -3.52916000
  O      1.12398000      4.87320000     -4.39350000
  C      3.54440000      0.05920710      4.52955000
  O      4.15566000      0.02138500      5.73487000
  C     -4.35220000      2.68046000     -1.19169000
  O     -5.47682000      3.38101000     -1.37107000
  C     -1.02452000     -5.20338000      2.06550000
  O     -1.36985000     -6.32098000      2.68409000
  C      3.81654000     -1.45307000     -3.23266000
  O      4.76380000     -1.74591000     -4.14336000
  C      3.29009000      3.61896000      1.84018000
  O      4.03232000      4.61949000      2.19530000
  C      2.00175000     -4.14934000     -2.42230000
  O      2.46568000     -5.19644000     -3.11540000
  C      0.32130900     -0.14442000      5.19078000
  O      0.39537300     -0.00244252      6.46122000
  C      4.06776000      3.70960000     -1.21969000
  O      5.15633000      4.36536000     -1.54960000
  C      3.18694000      1.70366000     -3.60302000
  O      3.95496000      2.30638000     -4.51204000
  C     -3.61362000     -4.10619000     -0.13373900
  O     -4.36404000     -5.19941000     -0.15121000
  C     -2.14123000      2.92256000     -3.68971000
  O     -2.72978000      3.65272000     -4.64757000
  C      0.20830200      1.13646000     -5.53023000
  O      0.38733600      1.68598000     -6.66697000
  C     -1.50656000     -2.84495000      4.13646000
  O     -2.15771000     -3.32189000      5.21150000
  C     -1.83150000      4.96485000     -1.35288000
  O     -2.25570000      6.22621000     -1.51314000
  C      1.83921000     -3.13365000      3.70919000
  O      2.24142000     -3.95849000      4.62081000

