110
Energy = -12132.29869368 au
 Ni     -0.93045500     -3.90503000     -2.71332000
 Ni     -1.50655000     -0.43821900     -1.59621000
 Ni     -0.59311700     -4.70355000     -0.24486200
 Ni      0.47569000      3.80487000     -0.64995600
 Ni     -0.67313200      1.99410000     -2.39192000
 Ni     -3.01385000      0.71841300      0.27905500
 Ni     -1.22196000     -1.16840000      0.87699200
 Ni      0.69434000      3.02680000      1.86923000
 Ni     -0.19640400     -1.68820000     -3.69002000
 Ni      2.97117000     -1.85805000     -1.05821000
 Ni      0.19940700     -2.29699000     -0.98946100
 Ni      1.65987000     -3.35023000     -2.84422000
 Ni      3.61746000      0.50222000     -1.96959000
 Ni      1.66144000     -1.41519000      3.28035000
 Ni      1.31693000     -0.68187200      0.71412400
 Ni      2.48227000     -1.00874000     -3.70141000
 Ni      1.87827000      2.57518000     -2.58031000
 Ni     -2.61397000     -2.12420000     -3.28579000
 Ni      2.99654000     -2.55409000      1.35510000
 Ni     -2.31495000     -2.81176000     -0.78514200
 Ni      4.01114000     -0.13232200      0.72141000
 Ni      1.02130000      0.04671590     -1.75559000
 Ni     -1.81631000      0.30855600     -4.02060000
 Ni     -4.09477000     -0.87650200     -1.41717000
 Ni      2.53186000      0.96328500      2.55768000
 Ni     -0.14303100      0.49162600      2.62305000
 Ni      1.86557000     -4.18015000     -0.38737000
 Ni     -2.03170000     -3.56565000      1.65026000
 Ni     -2.18502000      3.22656000     -0.44942600
 Ni      2.15208000      1.68649000     -0.07208770
 Ni     -1.96802000      2.46320000      2.10348000
 Ni     -2.78327000     -0.02890670      2.92662000
 Ni      0.74482800      0.80500500     -4.31353000
 Ni     -0.40060800      1.21444000      0.10905500
 Ni     -3.82576000     -1.65280000      1.05484000
 Ni     -1.00721000     -1.95366000      3.41951000
 Ni     -3.29891000      1.55375000     -2.17089000
 Ni      0.51254100     -3.16502000      1.58721000
  C      5.32440000      0.37209500     -0.81934200
  O      6.67659000      0.70239200     -1.02448000
  C     -0.75661400     -4.63455000      3.04833000
  O     -1.26791000     -5.69026000      3.56309000
  C      1.38371000     -2.24287000     -4.63122000
  O      1.57975000     -3.02702000     -5.65603000
  C     -0.73419100      3.37897000      3.59826000
  O     -0.92516600      4.32480000      4.53676000
  C     -4.89920000     -0.06819840      2.23057000
  O     -6.05878000     -0.04908740      2.88532000
  C      1.86193000      4.81503000     -1.64340000
  O      2.15527000      6.05998000     -1.93158000
  C      1.52539000      4.88374000      1.26845000
  O      1.74923000      6.02829000      1.84686000
  C      0.64541500      3.32238000     -4.08436000
  O      0.72466700      3.96979000     -5.24713000
  C      3.72128000     -3.73698000     -1.74179000
  O      4.41364000     -4.91618000     -1.56760000
  C     -3.80086000     -0.14382800     -3.41212000
  O     -4.74241000     -0.14563200     -4.30148000
  C     -0.44777800     -0.42749900     -5.14389000
  O     -0.62410900     -0.62381000     -6.41378000
  C     -1.68274000     -3.39541000     -4.35375000
  O     -2.16034000     -4.05957000     -5.34792000
  C      2.61007000     -3.89626000      2.74142000
  O      3.34861000     -4.82070000      3.35124000
  C     -3.25220000     -1.80785000      4.38173000
  O     -3.64772000     -2.00060000      5.58626000
  C      3.96528000     -1.50674000     -2.68283000
  O      5.05455000     -2.02320000     -3.16060000
  C     -1.52493000      4.70555000      1.01834000
  O     -2.02382000      5.91922000      1.18767000
  C      0.55886000     -2.54441000      4.32584000
  O      0.74525500     -3.18442000      5.44488000
  C      3.79709000      2.57101000     -2.93008000
  O      4.68179000      3.32903000     -3.57219000
  C      4.79231000      1.15210000      2.64307000
  O      5.96019000      1.29676000      3.15522000
  C     -2.45760000      1.58737000      4.31513000
  O     -3.18082000      1.97541000      5.33671000
  C      2.38436000      3.18935000      4.15827000
  O      3.05608000      3.74968000      5.10485000
  C      3.40602000     -0.75183000      3.95818000
  O      4.06658000     -0.83932300      5.10337000
  C     -5.45131000      0.81578600     -0.08445230
  O     -6.63020000      0.63534400     -0.55280300
  C      0.85940600     -5.21329000      0.89758700
  O      1.12649000     -6.43490000      1.30434000
  C     -2.52704000      2.73617000     -3.80632000
  O     -2.89378000      3.18568000     -5.00319000
  C      0.72122300     -5.02571000     -2.10011000
  O      0.85492400     -6.15696000     -2.72284000
  C      4.67992000     -1.91637000      0.70305900
  O      5.89718000     -2.35878000      0.89972100
  C      0.36833700      0.44887800      4.90707000
  O      0.26706900      0.73574200      6.11445000
  C     -4.41635000      3.34893000     -1.00789000
  O     -5.28977000      4.07075000     -1.64406000
  C     -1.24508000      4.26873000     -1.87109000
  O     -1.61156000      5.47224000     -2.56950000
  C     -4.11010000     -3.01362000     -1.57176000
  O     -5.27220000     -3.46283000     -1.92766000
  C      3.72872000      3.30195000      0.61369200
  O      4.72594000      4.11519000      0.55284400
  C     -3.28432000     -4.47570000     -1.05392000
  O     -3.15799000     -5.76651000     -0.87838700
  C      2.57187000      0.74380900     -5.12798000
  O      3.13391000      0.86292300     -6.25796000
  C     -4.06142000      2.82859000      1.49549000
  O     -5.02175000      3.52982000      2.00955000
  C     -4.29145000     -3.65886000      1.59136000
  O     -5.26339000     -4.24458000      2.05484000
