110
Energy = -12512.97965020 au
 Ni     -2.41112000     -3.42743000      1.33843000
 Ni     -1.28176000      0.11872400      1.50431000
 Ni     -0.19368000     -4.23358000      1.33786000
 Ni     -0.13102000      3.95583000     -0.98034400
 Ni     -2.01100000      2.45520000      0.39792900
 Ni      0.64473900      1.39340000      2.78862000
 Ni      1.15988000     -0.73663600      1.34916000
 Ni      2.29826000      3.07098000     -1.15117000
 Ni     -3.27994000     -1.27945000      0.26889900
 Ni     -0.84295700     -2.00802000     -2.79719000
 Ni     -0.70469200     -1.96763000      0.06764110
 Ni     -2.80415000     -3.29357000     -1.18898000
 Ni     -1.44493000      0.45686200     -3.70759000
 Ni      3.52235000     -1.40705000     -1.40141000
 Ni      1.03986000     -0.57336600     -1.27200000
 Ni     -3.27209000     -0.94145500     -2.38676000
 Ni     -2.07156000      2.65686000     -2.20465000
 Ni     -3.05591000     -1.30461000      2.92479000
 Ni      1.71642000     -2.76562000     -2.61532000
 Ni     -0.66905800     -2.39125000      3.12412000
 Ni      1.02408000     -0.47551500     -4.02918000
 Ni     -1.38189000      0.27819700     -1.08398000
 Ni     -3.74223000      1.00338000      1.82796000
 Ni     -1.23259000      0.09959810      4.15883000
 Ni      2.82068000      0.92174200     -2.61623000
 Ni      2.95453000      0.74147900      0.00086895
 Ni     -0.26243300     -4.10457000     -1.40466000
 Ni      1.94104000     -3.00708000      2.67490000
 Ni     -0.08460890      3.69152000      1.60467000
 Ni      0.39611400      1.73946000     -2.46396000
 Ni      2.41104000      2.88335000      1.48400000
 Ni      3.08600000      0.61202100      2.62142000
 Ni     -3.81470000      1.19974000     -0.86913900
 Ni      0.49764000      1.57133000      0.16736400
 Ni      1.31909000     -0.78384000      3.99167000
 Ni      3.64013000     -1.53443000      1.14522000
 Ni     -1.86222000      2.22673000      2.97865000
 Ni      1.71690000     -2.99505000      0.04815670
  C     -4.40228000     -2.58761000     -2.23043000
  O     -5.49837000     -3.12469000     -2.83441000
  C     -1.57609000     -3.96849000      2.86827000
  O     -2.00278000     -4.82627000      3.73181000
  C     -2.31196000     -1.11656000     -4.56960000
  O     -2.74858000     -1.45815000     -5.81097000
  C      4.20189000      3.19265000      1.06791000
  O      5.07344000      4.08641000      1.44354000
  C      3.16471000     -0.20739500      4.47193000
  O      3.97582000     -0.13459400      5.55682000
  C     -4.64653000      2.64203000      1.41848000
  O     -5.67629000      3.27084000      1.90483000
  C      2.29406000      2.89989000      3.58317000
  O      2.65385000      3.60692000      4.65946000
  C      3.48589000     -2.37467000     -3.19513000
  O      4.39180000     -3.07463000     -3.94893000
  C     -2.01151000      4.58535000      0.93593000
  O     -2.84853000      5.59814000      1.17598000
  C      0.16342700      0.75890400      5.28517000
  O      0.29731400      1.10830000      6.59444000
  C      1.72049000      2.97935000     -3.55423000
  O      1.80150000      3.73267000     -4.67645000
  C      5.21474000     -0.92947700     -0.67653900
  O      6.48944000     -1.12678000     -0.98080100
  C     -5.25140000      0.04609960     -0.02753860
  O     -6.58687000     -0.13585900     -0.09718740
  C      3.37668000      0.25245900     -4.28626000
  O      4.35048000      0.43529300     -5.18664000
  C      4.86510000      0.38108000      1.80499000
  O      6.14496000      0.65232600      2.13420000
  C     -1.40349000     -4.93661000     -0.03798570
  O     -1.78288000     -6.17675000     -0.10557300
  C      3.81608000     -2.70839000      2.68603000
  O      4.89157000     -3.33588000      3.29404000
  C      2.29930000      4.92902000     -1.15629000
  O      3.00177000      5.95433000     -1.63941000
  C     -1.99887000     -1.70656000      4.42347000
  O     -2.31637000     -2.13828000      5.60522000
  C      1.23908000      5.01875000      1.23557000
  O      1.39574000      6.28395000      1.63115000
  C      4.37368000      1.99613000     -1.66877000
  O      5.60410000      2.45896000     -1.93933000
  C      1.57216000     -4.83494000      1.73645000
  O      2.04382000     -5.95616000      2.16724000
  C      0.94794600     -2.78073000      4.16522000
  O      1.11282000     -3.38248000      5.29711000
  C     -3.80203000      3.43666000     -1.39601000
  O     -4.71322000      4.36259000     -1.73123000
  C      0.55931900     -2.24301000     -4.29637000
  O      0.65903900     -2.98644000     -5.34983000
  C      0.24679600      0.54600200     -5.41538000
  O      0.43043500      0.73745500     -6.72240000
  C     -4.94679000     -1.09816000      2.43912000
  O     -5.97771000     -1.41644000      3.22964000
  C     -3.88555000     -3.28406000      0.29022900
  O     -4.98330000     -3.93019000      0.49336900
  C     -4.06559000      0.92567800     -3.07899000
  O     -5.14644000      1.16725000     -3.87778000
  C     -1.65508000     -3.80564000     -2.62835000
  O     -2.04892000     -4.62207000     -3.56166000
  C     -1.06058000      4.93068000     -2.37868000
  O     -1.25546000      6.17608000     -2.73770000
  C     -0.70505300      3.63228000      3.83049000
  O     -0.93724100      4.55568000      4.77446000
  C      1.46080000     -4.80398000     -1.95604000
  O      1.78653000     -6.05881000     -2.40719000
  C      3.70863000     -3.58470000     -0.30213200
  O      4.42940000     -4.71783000     -0.30192700
  C     -1.63426000      2.58779000     -4.13529000
  O     -2.01140000      3.33725000     -5.20811000
  C     -3.01254000      1.12267000      4.05558000
  O     -3.70248000      1.53206000      5.06039000
