#B3LYP/6-31+G(d) OPT FREQ

110, Energy = -12337.18474902 au

0 1
 Ni      3.60541000     -1.97284000     -0.61609100
 Ni      0.38422200     -0.58442100     -1.64195000
 Ni      2.42879000     -3.14495000      1.53970000
 Ni     -2.45540000      3.04381000     -1.50335000
 Ni     -0.49668200      1.76130000     -2.63506000
 Ni     -2.14107000     -1.45716000     -1.81982000
 Ni     -0.77652200     -1.58228000      0.41535400
 Ni     -3.56908000      2.08375000      0.50332400
 Ni      2.92390000      0.27049800     -1.54517000
 Ni      2.33074000      1.50953000      1.93797000
 Ni      1.64767000     -0.74585100      0.59985200
 Ni      4.10964000      0.18627700      0.86878300
 Ni      1.42122000      3.82291000      0.84723900
 Ni     -1.43197000     -0.35739200      3.93988000
 Ni     -0.27407400      0.56968700      1.73490000
 Ni      3.31557000      2.56969000     -0.23333600
 Ni      0.20085500      3.96662000     -1.19240000
 Ni      2.41919000     -1.85834000     -2.76793000
 Ni      0.87861100      0.46842600      4.09462000
 Ni      1.12471000     -3.04770000     -0.75331800
 Ni      0.16680200      2.71626000      3.08920000
 Ni      0.88841200      1.56350000     -0.33434700
 Ni      1.59679000      0.40828400     -3.76174000
 Ni     -0.05556610     -2.80511000     -2.96662000
 Ni     -2.17578000      1.81124000      3.00504000
 Ni     -2.83025000     -0.31844400      1.67873000
 Ni      2.99779000     -0.77634500      2.81959000
 Ni      0.01876320     -3.93826000      1.38656000
 Ni     -2.89616000      0.95698300     -2.75841000
 Ni     -1.11438000      3.00454000      0.76803800
 Ni     -4.02736000     -0.19309700     -0.67261000
 Ni     -3.33970000     -2.38526000      0.23645000
 Ni      2.12478000      2.65925000     -2.30323000
 Ni     -1.55735000      0.71905300     -0.51463600
 Ni     -1.13978000     -3.86968000     -0.91134900
 Ni     -1.91902000     -2.62002000      2.55746000
 Ni     -0.90133200     -0.44964500     -3.93265000
 Ni      0.42512900     -1.82312000      2.82510000
  C     -4.35210000      1.41920000     -1.67784000
  O     -5.53073000      1.71145000     -2.13840000
  C      1.90203000      4.62330000     -0.74932800
  O      2.41914000      5.80717000     -0.83165300
  C      3.68195000      3.06280000      1.49729000
  O      4.62408000      3.78969000      1.98633000
  C     -2.80157000     -2.23466000      4.42429000
  O     -3.39010000     -3.00606000      5.27610000
  C      3.42582000      1.09527000     -4.27938000
  O      3.80792000      1.18118000     -5.50442000
  C      2.11626000     -5.22651000      1.12335000
  O      3.00355000     -6.07710000      1.71598000
  C      1.52399000      4.28636000      2.93333000
  O      1.85598000      5.24991000      3.79321000
  C      4.68904000     -2.15091000      1.19008000
  O      5.91934000     -2.72156000      1.17081000
  C     -2.79026000     -3.74989000     -2.09986000
  O     -3.55581000     -4.75823000     -2.68317000
  C     -2.71201000      3.73143000      2.59748000
  O     -3.30603000      4.57294000      3.38143000
  C     -0.58754000      1.88508000      4.55197000
  O     -0.73889900      2.46224000      5.70523000
  C     -2.81206000     -4.27813000      1.23235000
  O     -3.74549000     -5.24825000      1.46209000
  C     -4.51876000     -1.90796000     -1.11717000
  O     -5.67397000     -2.30157000     -1.51768000
  C      4.21843000     -1.22041000     -2.36800000
  O      5.33861000     -1.28630000     -3.00519000
  C     -3.12166000      0.53417900      3.89128000
  O     -3.97475000      0.58835300      4.84867000
  C      2.65261000      1.51705000      4.46554000
  O      3.15812000      1.81318000      5.61162000
  C     -0.21100600      0.85841500     -5.25438000
  O     -0.26579300      0.96028800     -6.55768000
  C     -0.49299800      4.74268000      0.97780700
  O     -0.87437300      5.92269000      1.32115000
  C     -1.46092000      4.91566000     -2.34210000
  O     -1.49740000      6.21628000     -2.75488000
  C      0.10626900     -0.97765400      4.94691000
  O      0.18481800     -1.37002000      6.17384000
  C      3.84697000      2.91718000     -1.97969000
  O      4.73818000      3.55586000     -2.61165000
  C      5.20146000      1.12733000     -0.66114300
  O      6.57145000      1.28976000     -0.66916500
  C      1.52380000     -1.96926000     -4.75290000
  O      2.25142000     -2.74858000     -5.73879000
  C     -2.39538000      2.53163000     -3.50481000
  O     -2.85272000      3.16447000     -4.52008000
  C      4.43298000      0.31683000      2.63217000
  O      5.51023000      0.46508800      3.29116000
  C     -4.33442000     -1.46131000      1.56421000
  O     -5.47518000     -1.63967000      2.13668000
  C      0.23471600     -4.45247000     -2.24466000
  O      0.47755800     -5.54278000     -2.88612000
  C     -0.35042600     -5.25673000      0.06632150
  O     -0.38557300     -6.54797000      0.23874500
  C     -5.06152000      1.21931000      1.64086000
  O     -6.19856000      1.81530000      1.88697000
  C      0.85636200      3.18580000     -3.91049000
  O      0.96955200      4.02790000     -4.89705000
  C     -3.29327000     -0.70422700     -3.92582000
  O     -4.23614000     -0.89642000     -4.90297000
  C      2.57245000     -2.41137000      3.97271000
  O      3.27756000     -2.95518000      4.93976000
  C     -1.34170000     -2.47205000     -4.54293000
  O     -1.64140000     -3.09331000     -5.66488000
  C      2.85941000     -3.78842000     -1.74936000
  O      3.70409000     -4.85139000     -2.03937000
  C     -3.46547000      3.80161000     -0.14169300
  O     -4.23470000      4.81771000     -0.30323000
  C     -0.03001340     -3.78560000      3.22539000
  O      0.11949600     -4.67924000      4.14432000

