110
Energy = -12517.28195986 au
 Ni     -0.43176300     -3.11095000     -2.23507000
 Ni     -1.15315000      0.63857500     -1.54665000
 Ni     -1.38417000     -3.65835000      0.14277700
 Ni      0.66854600      4.49332000      0.13268300
 Ni      0.49888100      2.95062000     -2.03545000
 Ni     -3.49053000      2.28871000     -0.56958400
 Ni     -2.05641000      0.01737230      0.81473100
 Ni     -0.16388700      3.88405000      2.45462000
 Ni      0.85788600     -0.76335600     -2.69661000
 Ni      2.41246000     -1.19799000      0.75921400
 Ni     -0.07024170     -1.40215000     -0.24280400
 Ni      2.10937000     -2.86425000     -1.37106000
 Ni      3.81196000      1.17487000      0.36283200
 Ni     -0.62947800     -0.44948800      4.18159000
 Ni      0.37958700      0.26695300      1.79969000
 Ni      3.48678000     -0.50411200     -1.83645000
 Ni      2.78736000      3.21791000     -0.82062100
 Ni     -1.60361000     -1.14282000     -3.83456000
 Ni      1.50532000     -1.85959000      3.18151000
 Ni     -2.57771000     -1.77428000     -1.32363000
 Ni      2.86758000      0.49628200      2.83273000
 Ni      1.31210000      0.88782200     -0.58805200
 Ni     -0.24228600      1.31124000     -4.07626000
 Ni     -3.50174000      0.41947900     -2.65248000
 Ni      0.81338100      1.96117000      3.84768000
 Ni     -1.52282000      1.65567000      2.91456000
 Ni      1.07240000     -3.50084000      1.04125000
 Ni     -3.45057000     -2.19164000      1.23616000
 Ni     -1.57072000      4.22179000     -0.84083300
 Ni      1.90842000      2.48453000      1.49461000
 Ni     -2.56852000      3.50497000      1.66263000
 Ni     -4.11774000      1.37017000      1.94383000
 Ni      2.37643000      1.43357000     -3.11117000
 Ni     -0.68587600      2.20790000      0.46244100
 Ni     -4.49115000     -0.26230700     -0.11375700
 Ni     -3.02803000     -0.54529400      3.20178000
 Ni     -2.03417000      2.68284000     -2.95661000
 Ni     -1.00213000     -1.99915000      2.14988000
  C      2.63593000      2.42659000      4.22243000
  O      3.26085000      2.88467000      5.31637000
  C     -0.92419900     -4.35018000      2.24144000
  O     -1.20045000     -5.35946000      3.07149000
  C      4.19073000     -2.30800000     -2.03276000
  O      5.27030000     -2.86980000     -2.57812000
  C     -2.99145000     -4.18598000     -0.75815900
  O     -3.68980000     -5.26343000     -1.07718000
  C      2.96943000     -4.04225000      0.03309470
  O      3.84068000     -5.05228000      0.03444760
  C      2.97197000     -1.02029000      4.23334000
  O      3.69023000     -1.35794000      5.34921000
  C      4.54736000     -1.45160000      1.37870000
  O      5.47864000     -2.16596000      1.83061000
  C      0.09886160     -2.41002000      4.60851000
  O      0.09979880     -3.14934000      5.75133000
  C     -4.39606000      2.94519000      0.97375600
  O     -5.43755000      3.70811000      1.09590000
  C     -4.98420000     -2.24174000     -0.50214200
  O     -6.22327000     -2.68527000     -0.79654400
  C      2.19729000     -3.74456000      2.74571000
  O      2.72358000     -4.78628000      3.42622000
  C     -4.81377000      1.14891000     -1.38204000
  O     -5.92933000      1.64856000     -1.83342000
  C     -3.39540000     -1.42127000     -3.16687000
  O     -4.32261000     -2.01032000     -3.85947000
  C      4.50066000      1.49793000      2.37148000
  O      5.63612000      1.85939000      3.00915000
  C     -1.01315000     -0.85660200     -5.76632000
  O     -1.43440000     -1.29432000     -6.87723000
  C      2.07321000     -1.62403000     -4.23239000
  O      2.25319000     -1.86364000     -5.43964000
  C      1.56365000     -4.03377000     -2.82201000
  O      2.09330000     -5.06290000     -3.48709000
  C      4.03188000      0.55805900     -3.59737000
  O      5.09434000      0.65597800     -4.46252000
  C      2.42152000      3.30468000     -2.69460000
  O      2.92289000      4.18202000     -3.50770000
  C      5.17504000      0.63155600     -0.91350900
  O      6.50617000      0.71399300     -1.04704000
  C     -1.67782000     -3.67851000     -3.55621000
  O     -1.87999000     -4.74906000     -4.32200000
  C     -3.29856000      1.69483000      3.61048000
  O     -3.75579000      2.28601000      4.64808000
  C     -0.78871700      3.41522000      4.54741000
  O     -0.95582500      4.55235000      5.26296000
  C      4.49891000      3.63163000      0.34959000
  O      5.43772000      4.47681000     -0.00366138
  C     -2.87754000      1.53732000     -4.30181000
  O     -3.59907000      1.93968000     -5.40932000
  C     -0.55030500      4.23066000     -3.08390000
  O     -0.39055500      4.70168000     -4.28066000
  C     -3.70356000     -3.33991000      2.73528000
  O     -4.68216000     -4.15273000      3.02418000
  C     -2.60667000     -1.48053000      4.84629000
  O     -3.30229000     -1.76676000      5.95330000
  C      1.24902000      1.68559000     -5.70717000
  O      1.22630000      1.96694000     -6.93788000
  C     -3.26385000      3.79130000     -1.66688000
  O     -4.10456000      4.66871000     -2.11603000
  C      0.15295400      5.28304000     -2.06415000
  O      0.66810800      6.43743000     -1.81664000
  C      1.61277000      4.35781000      1.81034000
  O      2.45934000      5.21850000      2.31173000
  C     -1.43089000      5.06193000      1.07707000
  O     -1.75581000      6.28712000      1.35670000
  C     -0.14982000      0.95155000      5.43175000
  O     -0.16725100      1.08419000      6.78774000
  C     -4.92025000     -0.31964900      1.85460000
  O     -6.14059000     -0.46497400      2.28048000
  C      0.18970700     -5.04319000     -0.30482400
  O      0.28564100     -6.38718000     -0.28890500
