110
Energy = -12620.48281358 au
 Ni      0.05902830     -3.36329000     -2.42045000
 Ni     -1.39775000     -0.07143160     -1.17166000
 Ni      0.64730300     -3.98335000     -0.04451340
 Ni     -0.62830100      4.28168000     -0.11874600
 Ni     -1.46862000      2.55088000     -1.97195000
 Ni     -3.02882000      0.65766600      0.88818000
 Ni     -0.71652800     -0.75692200      1.24062000
 Ni      0.10483400      3.69447000      2.22500000
 Ni      0.14725100     -0.86740000     -3.36664000
 Ni      3.32042000     -0.36793100     -1.14703000
 Ni      0.78569200     -1.42939000     -0.79215300
 Ni      2.32918000     -2.17198000     -2.84356000
 Ni      3.17770000      2.27157000     -1.77714000
 Ni      2.37449000     -0.25629600      3.30694000
 Ni      1.56592000      0.39909200      0.88873000
 Ni      2.36854000      0.45582400     -3.56399000
 Ni      0.92919400      3.54783000     -2.26575000
 Ni     -2.14382000     -1.94349000     -2.89880000
 Ni      3.88449000     -0.84998500      1.30042000
 Ni     -1.47856000     -2.61180000     -0.45134300
 Ni      3.95831000      1.54392000      0.60915000
 Ni      0.88564300      1.07188000     -1.49101000
 Ni     -2.11102000      0.65914700     -3.72151000
 Ni     -3.74973000     -1.27326000     -0.83244100
 Ni      2.46628000      2.22733000      2.56160000
 Ni      0.04475290      1.15751000      2.96163000
 Ni      3.04508000     -2.82731000     -0.55610300
 Ni     -0.84289800     -3.35464000      2.06206000
 Ni     -2.90941000      3.11814000      0.07982290
 Ni      1.74380000      3.10663000      0.28487000
 Ni     -2.11351000      2.56564000      2.53877000
 Ni     -2.24083000     -0.11759600      3.30448000
 Ni      0.20242800      1.79325000     -3.92624000
 Ni     -0.61589500      1.75289000      0.50518500
 Ni     -3.03131000     -1.95580000      1.58963000
 Ni     -0.02305840     -1.55670000      3.75451000
 Ni     -3.68217000      1.26975000     -1.47430000
 Ni      1.51906000     -2.11531000      1.63846000
  C     -1.12068000      0.31844600      4.97880000
  O     -1.41796000      0.59255700      6.26036000
  C      4.01278000     -2.17388000     -2.07174000
  O      5.10939000     -2.58025000     -2.62874000
  C     -3.27668000     -3.74401000      0.86067600
  O     -4.12915000     -4.76360000      0.96536000
  C      4.10600000      1.05920000      2.64097000
  O      5.19478000      1.31061000      3.29671000
  C      4.37201000     -2.91329000      1.08150000
  O      5.43042000     -3.74034000      1.18494000
  C      1.14801000     -3.07021000     -3.95030000
  O      1.37926000     -3.82120000     -4.97682000
  C     -0.98932100      3.20426000     -3.80522000
  O     -1.41901000      3.92315000     -4.78913000
  C     -0.82066000      3.23426000      3.86430000
  O     -0.96695100      4.04809000      4.84923000
  C      3.46009000     -1.80195000      3.60841000
  O      4.39737000     -2.20615000      4.45849000
  C      1.81130000      1.09894000      4.65887000
  O      2.12458000      1.38373000      5.93313000
  C      2.57023000      4.70799000     -1.37912000
  O      2.81904000      5.87701000     -1.99182000
  C     -2.25905000      4.28488000      1.45826000
  O     -2.95715000      5.32144000      1.80694000
  C     -3.39974000     -1.73867000      3.70232000
  O     -4.28816000     -2.08760000      4.64355000
  C     -0.96541800     -5.20917000      0.71844400
  O     -0.91043900     -6.52994000      0.85443000
  C      1.58195000     -4.11443000      2.23825000
  O      2.20728000     -5.04417000      2.96078000
  C      4.97388000      0.01152600      0.02597960
  O      6.24903000     -0.17296600     -0.11636700
  C      3.10776000     -1.01468000     -4.73636000
  O      3.89262000     -1.12720000     -5.78997000
  C      4.73401000      1.18032000     -2.57441000
  O      5.86234000      1.72753000     -3.01027000
  C      0.71413800      5.03115000      1.04544000
  O      0.96477900      6.28299000      1.28541000
  C     -5.06641000     -0.17372500     -1.97667000
  O     -6.34786000     -0.15458800     -2.38949000
  C     -3.73683000      1.47059000      3.43642000
  O     -4.64024000      1.92956000      4.32335000
  C     -1.21960000      4.87519000     -2.39132000
  O     -1.52733000      6.16900000     -2.21370000
  C      1.12447000     -2.33251000      5.02328000
  O      1.17746000     -2.72554000      6.26086000
  C     -3.89369000      0.90672300     -4.53682000
  O     -4.37528000      0.99949000     -5.71707000
  C      3.76583000      3.32550000      0.21345400
  O      4.64631000      4.25508000      0.38411800
  C      2.06856000     -4.30010000     -1.31493000
  O      2.57644000     -5.46995000     -1.54812000
  C     -1.52180000     -3.64881000      3.92505000
  O     -1.85232000     -4.71974000      4.58342000
  C     -4.87489000     -1.02956000      1.05408000
  O     -6.14946000     -1.22570000      1.38331000
  C     -4.35324000      2.02684000      0.46089600
  O     -5.55872000      2.35225000      0.79490200
  C     -3.40126000      3.13740000     -1.78850000
  O     -4.23195000      3.89765000     -2.43723000
  C     -1.53899000     -4.59583000     -2.17027000
  O     -1.79494000     -5.76733000     -2.70189000
  C     -3.87927000     -2.97546000     -1.97835000
  O     -4.92657000     -3.65728000     -2.47753000
  C      2.06260000      2.56011000     -3.85272000
  O      2.53454000      3.16873000     -4.89668000
  C      2.20056000      4.20337000      3.02338000
  O      2.76915000      4.97251000      3.95282000
  C     -1.67686000     -2.12830000     -4.77100000
  O     -2.17901000     -2.83492000     -5.75157000
  C     -0.01997760      0.22946200     -4.90423000
  O      0.01602840      0.01088270     -6.17787000
