110
Energy = -12686.21816398 au
 Ni      3.75273000     -0.21172300     -1.18304000
 Ni      0.14264300     -1.36971000     -1.59043000
 Ni      3.62092000     -0.61051600      1.43346000
 Ni     -4.18345000      0.12527900     -1.61309000
 Ni     -2.05380000     -0.41600500     -3.27460000
 Ni     -1.49432000     -3.65643000     -0.68441200
 Ni     -0.03051060     -1.72710000      0.95677600
 Ni     -4.33603000     -0.32256000      0.86305700
 Ni      1.61378000      0.54400500     -2.54264000
 Ni      0.70195400      2.72113000      0.34534700
 Ni      1.46588000      0.19717400      0.04291210
 Ni      3.01474000      2.19038000     -0.88822100
 Ni     -1.34141000      3.73855000     -1.04526000
 Ni     -0.97237300      0.37963200      3.89484000
 Ni     -0.77190900      0.72339000      1.26021000
 Ni      0.85312100      3.06448000     -2.23716000
 Ni     -2.69814000      1.98345000     -2.61406000
 Ni      2.43674000     -1.86789000     -2.83922000
 Ni      0.55661500      2.46141000      2.98244000
 Ni      2.34775000     -2.43310000     -0.33057800
 Ni     -1.48771000      3.27365000      1.54149000
 Ni     -0.60491400      1.09060000     -1.30829000
 Ni      0.38629500     -1.01849000     -4.19791000
 Ni      1.00653000     -3.91058000     -2.03085000
 Ni     -3.03481000      1.25779000      2.51689000
 Ni     -2.35404000     -1.27271000      2.51809000
 Ni      2.88558000      1.86953000      1.79428000
 Ni      1.98801000     -2.73792000      2.33757000
 Ni     -3.40985000     -2.25999000     -1.99984000
 Ni     -2.82620000      1.62750000     -0.13752300
 Ni     -3.56445000     -2.69034000      0.63778000
 Ni     -1.51469000     -3.67343000      2.05110000
 Ni     -0.46728500      1.53590000     -3.93673000
 Ni     -2.06581000     -0.83613900     -0.38191000
 Ni      0.81089600     -4.20376000      0.72018900
 Ni     -0.05383760     -2.16624000      3.53018000
 Ni     -1.13631000     -3.04238000     -3.28957000
 Ni      1.34424000     -0.18220300      2.72488000
  C     -5.14972000      1.85314000     -0.78609900
  O     -6.33140000      2.04679000     -1.35675000
  C     -2.53685000     -3.98641000     -2.31008000
  O     -3.25179000     -5.01637000     -2.61287000
  C     -2.32333000      1.42374000     -4.42207000
  O     -2.92485000      1.76774000     -5.52023000
  C     -4.97661000      1.49479000      1.82005000
  O     -6.17024000      1.81057000      2.36747000
  C     -2.73894000     -4.43809000      0.85270700
  O     -3.42737000     -5.53862000      0.99392100
  C      2.85299000     -3.58022000     -2.16850000
  O      3.81874000     -4.34645000     -2.59511000
  C     -1.92916000     -2.86360000      3.86474000
  O     -2.38087000     -3.31762000      4.96320000
  C     -1.86573000      3.07720000      3.55218000
  O     -2.37024000      3.96362000      4.46744000
  C      2.75139000      2.63238000     -3.23700000
  O      3.50808000      3.20846000     -4.17501000
  C      0.15025000     -4.47383000      2.48282000
  O      0.20840000     -5.63278000      3.07313000
  C     -4.92656000     -1.71686000     -0.54941500
  O     -6.14001000     -2.18816000     -0.60102900
  C      0.16213200     -0.27841400      5.28114000
  O      0.09324410     -0.21437800      6.60187000
  C     -3.88437000     -0.95959300     -3.25568000
  O     -4.73934000     -1.05094000     -4.23884000
  C     -0.52712700      5.54303000     -0.45269100
  O     -0.87247100      6.73031000     -0.79021800
  C     -2.83063000      0.32893800      4.14997000
  O     -3.56010000      0.38697400      5.22082000
  C     -0.07530210     -4.96704000     -0.76808600
  O     -0.30906200     -6.23705000     -0.90994700
  C      2.27643000      4.28568000     -0.84332900
  O      2.82599000      5.50342000     -0.90709900
  C      0.91987600      0.87869500     -5.21402000
  O      1.23343000      1.22788000     -6.48774000
  C      4.81024000     -1.73153000     -0.41945000
  O      6.05926000     -2.19451000     -0.60075400
  C     -3.30774000      3.93745000     -1.84459000
  O     -3.98260000      4.81299000     -2.61133000
  C      1.12362000      2.61347000      4.79779000
  O      1.41282000      3.47491000      5.68592000
  C      4.11478000     -2.33599000      2.43469000
  O      5.16641000     -2.86010000      3.07649000
  C     -4.17521000     -1.73452000      2.22037000
  O     -5.03666000     -2.15297000      3.09361000
  C      4.91633000      0.87591100      1.68435000
  O      6.15943000      1.01444000      2.15089000
  C      2.06982000     -1.65743000     -4.79788000
  O      2.63064000     -2.03368000     -5.98772000
  C      1.57776000     -2.66702000      4.20174000
  O      2.01781000     -3.20677000      5.25427000
  C      4.07417000     -0.19818200     -3.16110000
  O      5.16742000     -0.11629700     -3.94793000
  C      3.22229000      3.74898000      2.08705000
  O      4.16691000      4.42543000      2.63116000
  C     -0.41973100      3.84894000     -3.64340000
  O     -0.28703900      4.89357000     -4.48372000
  C     -3.24640000      3.87777000      0.88511200
  O     -4.14900000      4.83124000      1.11332000
  C     -1.46174000     -1.62824000     -4.61994000
  O     -1.91768000     -1.71869000     -5.84436000
  C      0.22672600     -4.11540000     -3.61690000
  O      0.35080700     -5.00509000     -4.49341000
  C      0.33184100      4.51129000      2.02286000
  O      0.50700100      5.78436000      2.41475000
  C      4.93709000      1.92299000     -0.71711000
  O      6.01502000      2.61100000     -1.02165000
  C      2.65920000     -4.25982000      0.71148600
  O      3.48323000     -5.27707000      0.70105100
  C      2.98557000      0.46423000      3.78666000
  O      3.59464000      0.44340500      4.96399000
