110
Energy = -12357.03609720 au
 Ni      1.57807000     -3.40023000     -2.34814000
 Ni     -0.83113200     -0.59832000     -1.49201000
 Ni      1.94454000     -3.91461000      0.01653390
 Ni     -1.23188000      3.84596000     -0.50492000
 Ni     -1.22699000      1.84138000     -2.29481000
 Ni     -2.92129000     -0.36818600      0.22942700
 Ni     -0.43447300     -1.12972000      0.99634500
 Ni     -0.82901400      3.30073000      1.97234000
 Ni      1.14743000     -0.82653200     -3.31890000
 Ni      3.66901000      0.30651600     -0.71406100
 Ni      1.51249000     -1.40059000     -0.71871300
 Ni      3.49603000     -1.64073000     -2.35995000
 Ni      3.06233000      2.72720000     -1.51188000
 Ni      1.96686000     -0.02680720      3.54252000
 Ni      1.54112000      0.52471200      1.00408000
 Ni      3.14857000      0.88328400     -3.15257000
 Ni      0.77309600      3.51525000     -2.27388000
 Ni     -0.86295700     -2.51885000     -3.22150000
 Ni      3.94199000     -0.23458200      1.73490000
 Ni     -0.43093800     -3.07287000     -0.70297700
 Ni      3.54174000      2.25798000      1.03190000
 Ni      1.14122000      1.05505000     -1.47150000
 Ni     -1.21205000     -0.03420610     -4.09376000
 Ni     -2.84133000     -2.38456000     -1.47327000
 Ni      1.66743000      2.54943000      2.75889000
 Ni     -0.40705000      0.81070800      2.78083000
 Ni      3.84290000     -2.23117000     -0.01805120
 Ni     -0.03614330     -3.57445000      1.79637000
 Ni     -3.24108000      2.16573000     -0.52982600
 Ni      1.18588000      3.06655000      0.34110700
 Ni     -2.82335000      1.57539000      2.04320000
 Ni     -2.49535000     -0.95535400      2.83247000
 Ni      0.74628900      1.55910000     -4.02783000
 Ni     -0.79615800      1.32732000      0.23316600
 Ni     -2.57805000     -2.85057000      1.06908000
 Ni     -0.01136040     -1.65081000      3.54718000
 Ni     -3.26367000      0.24531600     -2.33673000
 Ni      1.99586000     -2.01274000      1.78983000
  C     -0.53140800      0.23859300      4.86646000
  O     -0.74363000      0.54890600      6.12351000
  C     -1.88042000     -1.87730000     -4.93231000
  O     -2.41419000     -2.40720000     -6.03467000
  C     -4.98758000      1.58855000     -1.49959000
  O     -6.17346000      2.00361000     -1.90108000
  C     -0.57182500      3.44208000     -4.15889000
  O     -0.74273600      4.02078000     -5.34700000
  C      4.56140000      1.65286000     -1.71082000
  O      5.77635000      2.00839000     -1.99957000
  C     -3.75712000     -2.97536000      2.76725000
  O     -4.64256000     -3.77877000      3.29819000
  C      2.91597000      3.70807000      2.02011000
  O      3.55412000      4.71882000      2.51186000
  C     -4.23156000     -1.65022000     -2.80943000
  O     -5.37935000     -2.00039000     -3.40415000
  C      5.12960000      1.38086000      1.60514000
  O      6.38183000      1.81045000      1.96087000
  C     -4.66368000      1.83248000      1.47847000
  O     -5.79009000      2.33386000      1.94682000
  C      3.04671000      1.51509000      4.26097000
  O      3.65944000      1.77308000      5.41649000
  C     -3.03287000      1.40083000     -4.25695000
  O     -3.65624000      1.64317000     -5.39956000
  C      2.37865000      2.72721000     -3.67873000
  O      2.97553000      3.41517000     -4.60430000
  C     -1.32075000     -4.40711000     -2.41143000
  O     -1.52651000     -5.60472000     -2.99768000
  C     -1.43694000     -2.88239000      4.12045000
  O     -1.70881000     -3.44826000      5.29403000
  C      5.13416000     -0.82673800     -0.50532900
  O      6.37357000     -1.07691000     -0.77195800
  C     -3.51880000     -4.21492000     -0.53776400
  O     -4.56008000     -4.97716000     -0.78538800
  C      0.35874200      3.14665000      4.08607000
  O      0.46715700      3.96455000      5.13723000
  C      3.47053000     -3.70865000      1.05580000
  O      4.32358000     -4.62282000      1.39583000
  C      0.63142300      0.02250780     -5.10618000
  O      0.89159200     -0.17883600     -6.35653000
  C      0.05349110      4.88014000      1.36706000
  O      0.15356500      6.15989000      1.73368000
  C      0.07389030      5.34412000     -1.38345000
  O     -0.00771397      6.51261000     -2.01462000
  C     -3.84812000      0.07959970      3.83391000
  O     -4.63026000     -0.01823660      4.86301000
  C      2.87913000      4.40263000     -0.59585500
  O      3.52902000      5.56185000     -0.89352200
  C      3.50203000     -3.48363000     -1.87681000
  O      4.34247000     -4.25923000     -2.49944000
  C     -2.22764000      2.97544000      3.63757000
  O     -2.88716000      3.71966000      4.52006000
  C     -1.42995000     -4.89339000      0.93237600
  O     -1.72165000     -6.15914000      1.23885000
  C      1.47017000     -4.23117000      2.87730000
  O      1.76805000     -5.30810000      3.56958000
  C      1.82960000     -1.72003000      4.51401000
  O      2.27475000     -2.18278000      5.64710000
  C     -4.72389000     -1.06975000      0.57876100
  O     -6.00111000     -1.15353000      0.68107200
  C      4.19178000     -1.62705000      3.08642000
  O      5.33219000     -2.00398000      3.64513000
  C      1.07856000     -2.60786000     -4.59099000
  O      1.58750000     -3.49551000     -5.46015000
  C     -2.92854000      4.21667000      0.91195800
  O     -3.60875000      5.36408000      0.98908100
  C     -2.72637000      3.56452000     -2.09311000
  O     -3.44175000      4.47346000     -2.83347000
  C      3.92156000     -0.68321700     -4.24431000
  O      4.80698000     -0.76944600     -5.22342000
  C      0.81189500     -5.36551000     -1.54784000
  O      1.32948000     -6.56837000     -1.37848000
