110
Energy = -11820.12739505 au
 Ni      1.67590000      1.27763000     -3.76862000
 Ni      2.14852000      0.73571200     -0.13885600
 Ni     -0.82119400      1.83681000     -3.41772000
 Ni      2.08410000     -2.34193000      3.24968000
 Ni      3.36220000     -1.04311000      1.33598000
 Ni      1.41492000      1.99562000      1.97958000
 Ni     -0.32921200      1.24492000      0.25047800
 Ni     -0.37495900     -1.79367000      3.61032000
 Ni      2.88894000     -0.50422600     -2.27389000
 Ni     -0.14137100     -2.49295000     -2.17114000
 Ni      0.40390700      0.02093480     -1.89005000
 Ni      1.16015000     -1.26758000     -4.03371000
 Ni      1.08955000     -4.27570000     -0.71894800
 Ni     -3.41734000     -0.75281000      0.35770500
 Ni     -0.87304100     -1.24076000     -0.03688210
 Ni      2.38699000     -3.03843000     -2.56094000
 Ni      2.83636000     -3.54333000      1.04434000
 Ni      3.46577000      2.00559000     -2.00019000
 Ni     -2.65560000     -1.99691000     -1.79004000
 Ni      0.94097100      2.49471000     -1.60179000
 Ni     -1.44682000     -3.78150000     -0.32852200
 Ni      1.60602000     -1.75133000     -0.42728400
 Ni      4.66843000      0.22775200     -0.51267700
 Ni      2.70705000      3.26646000      0.15906500
 Ni     -2.20327000     -2.52589000      1.83484000
 Ni     -1.61056000     -0.00782350      2.09150000
 Ni     -1.34637000     -0.72853400     -3.65927000
 Ni     -1.55861000      3.05811000     -1.22567000
 Ni      2.59992000      0.17986400      3.48771000
 Ni      0.32517600     -3.00806000      1.44508000
 Ni      0.12455500      0.73191300      3.88273000
 Ni     -1.11385000      2.54615000      2.40596000
 Ni      4.11171000     -2.29626000     -0.79767000
 Ni      0.87280900     -0.52584100      1.71685000
 Ni      0.21996700      3.78693000      0.53440500
 Ni     -2.85490000      1.79905000      0.64079200
 Ni      3.91926000      1.48051000      1.60899000
 Ni     -2.06367000      0.52111000     -1.50217000
  C     -5.22534000     -1.28356000     -0.22897300
  O     -6.40773000     -1.67451000     -0.46572100
  C      1.40928000     -1.32141000      4.91120000
  O      1.84242000     -1.64886000      6.08089000
  C      0.60148400      3.22775000     -4.15883000
  O      0.71417600      3.82082000     -5.37263000
  C     -3.28057000     -3.77822000     -1.23299000
  O     -4.09026000     -4.79630000     -1.61731000
  C      1.91512000      4.53449000      1.46826000
  O      2.46520000      5.64974000      1.80747000
  C     -1.27624000      1.06645000      5.29715000
  O     -1.34322000      1.14476000      6.56738000
  C     -4.70037000      1.42463000     -2.39639000
  O     -5.79653000      1.78154000     -2.96923000
  C     -4.77456000      1.23159000      1.02465000
  O     -5.98982000      1.55261000      1.28685000
  C     -2.19102000     -2.37156000      4.40090000
  O     -2.47847000     -2.80494000      5.58698000
  C     -1.93060000     -5.04252000      1.30603000
  O     -2.38679000     -6.15431000      1.76824000
  C      0.48815100     -3.98157000      3.29809000
  O      0.62555900     -4.91644000      4.16979000
  C      4.82719000     -0.23384800      3.18158000
  O      5.78935000     -0.39404700      4.07039000
  C      1.65038000     -3.84708000     -4.40267000
  O      2.28841000     -4.66548000     -5.17266000
  C      2.83568000      4.20915000     -1.76849000
  O      3.77800000      5.15189000     -2.04086000
  C      3.29545000      2.88862000     -3.91885000
  O      4.05663000      2.99398000     -5.00129000
  C      5.53775000      2.08453000     -1.07292000
  O      6.80260000      2.18299000     -1.47620000
  C     -3.08310000      3.25746000      3.11736000
  O     -3.80881000      3.97279000      3.85541000
  C      1.42213000     -5.50179000      0.99694000
  O      1.63634000     -6.80442000      0.84763900
  C     -4.15341000     -2.77679000      2.34276000
  O     -5.15073000     -3.41600000      2.78208000
  C      4.20209000      3.44457000      2.22981000
  O      5.49688000      3.63161000      2.40134000
  C      5.32087000     -1.44607000      0.73688900
  O      6.58190000     -1.68223000      0.77085400
  C     -3.71323000      3.98708000     -0.36297100
  O     -4.57440000      4.90212000     -0.37870300
  C     -1.32862000     -3.03630000     -4.41871000
  O     -1.54731000     -3.53911000     -5.56578000
  C     -1.27589000      4.94082000      1.27447000
  O     -1.44078000      6.21700000      1.38287000
  C      3.93987000     -1.60677000     -4.07030000
  O      5.16143000     -1.75712000     -4.43406000
  C      0.07795410      3.52464000      4.02135000
  O      0.02858790      4.52913000      4.76484000
  C     -3.97046000      0.20879500      3.63304000
  O     -4.78705000      0.19409400      4.62881000
  C      0.79152500      0.05923950     -5.58103000
  O      1.36762000     -0.17143000     -6.76742000
  C      3.82470000     -3.23442000      2.88967000
  O      4.63105000     -4.20577000      3.33356000
  C     -3.79457000     -1.26716000     -3.29828000
  O     -4.69247000     -1.68732000     -4.15949000
  C      3.57273000     -4.33468000     -1.06513000
  O      4.52384000     -5.13599000     -1.40492000
  C      0.10770200      4.82450000     -1.76872000
  O      0.16710500      6.05342000     -2.17990000
  C     -0.85781000     -5.07689000     -2.36542000
  O     -0.75435700     -6.27488000     -2.79144000
  C      2.21197000      1.83883000      4.49456000
  O      2.91279000      2.41860000      5.48022000
  C     -1.78846000      0.82310400     -5.10442000
  O     -2.35678000      1.02733000     -6.27433000
  C     -2.30328000      3.39577000     -3.03770000
  O     -2.88229000      4.30338000     -3.83662000
