110
Energy = -12252.73093879 au
 Ni      2.91705000     -2.22631000     -1.19203000
 Ni     -0.05693490      0.08022790     -1.54264000
 Ni      1.80251000     -3.40684000      0.82054100
 Ni     -1.87086000      4.10070000     -0.26155100
 Ni     -0.41320100      2.62737000     -1.94821000
 Ni     -2.61156000     -0.24879700     -1.48645000
 Ni     -1.16175000     -1.06511000      0.47334500
 Ni     -2.96461000      2.88586000      1.76756000
 Ni      2.52162000      0.38201000     -1.61360000
 Ni      2.56444000      0.95620100      2.05501000
 Ni      1.39849000     -0.77427600      0.41152000
 Ni      3.99858000     -0.47320400      0.37630200
 Ni      2.17056000      3.54932000      1.55957000
 Ni     -1.07622000     -0.47928900      4.15691000
 Ni     -0.04295640      0.63316300      2.04361000
 Ni      3.68511000      2.15864000     -0.08255630
 Ni      0.77793700      4.29787000     -0.37238000
 Ni      1.43322000     -1.35348000     -3.23153000
 Ni      1.39606000     -0.15495500      4.10758000
 Ni      0.30412000     -2.47085000     -1.15313000
 Ni      1.06910000      2.30647000      3.69793000
 Ni      1.07163000      1.77623000      0.02503010
 Ni      1.09187000      1.26322000     -3.64500000
 Ni     -1.17776000     -1.63919000     -3.16677000
 Ni     -1.50636000      2.05085000      3.68390000
 Ni     -2.71598000      0.29854100      2.14336000
 Ni      2.88195000     -1.67805000      2.33399000
 Ni     -0.82127000     -3.71727000      0.87213900
 Ni     -2.96223000      2.37298000     -1.90041000
 Ni     -0.39387700      3.30096000      1.70311000
 Ni     -4.12144000      1.12928000      0.20205700
 Ni     -3.80127000     -1.38716000      0.55918800
 Ni      2.19544000      2.96888000     -1.97455000
 Ni     -1.49268000      1.48252000      0.08586650
 Ni     -2.32067000     -2.82528000     -1.09936000
 Ni     -2.29200000     -2.25280000      2.52472000
 Ni     -1.53118000      0.96484100     -3.57346000
 Ni      0.33487300     -1.94573000      2.48727000
  C     -4.68901000      3.00591000      0.75502900
  O     -5.81537000      3.64432000      0.79385400
  C      0.36689000     -1.50540000      5.06952000
  O      0.48035700     -1.87587000      6.31373000
  C     -2.82330000     -4.55724000     -0.34005100
  O     -3.55824000     -5.59393000     -0.65260400
  C      3.53331000     -0.97789100      4.28652000
  O      4.48289000     -1.47088000      5.06472000
  C     -4.55297000     -1.90211000     -1.47041000
  O     -5.75764000     -2.31746000     -1.83155000
  C     -4.67249000      1.05870000     -2.19035000
  O     -5.83575000      1.32765000     -2.62011000
  C      3.22245000      4.03096000     -0.76435000
  O      3.81964000      5.13976000     -1.04811000
  C      0.05908960      1.55014000     -5.32316000
  O      0.10245900      1.90955000     -6.57504000
  C     -3.95979000     -3.27981000      1.72307000
  O     -4.90517000     -3.97582000      2.37737000
  C     -1.75399000      4.19854000      2.75129000
  O     -2.31332000      5.26686000      3.20365000
  C      4.91258000      0.86260800      1.71758000
  O      6.15157000      0.70044600      2.01878000
  C      1.91309000     -3.72312000      2.75916000
  O      2.32587000     -4.67308000      3.47134000
  C     -2.56022000     -3.05078000     -3.34363000
  O     -3.15981000     -3.75887000     -4.29893000
  C      2.63929000      1.32908000      4.33094000
  O      3.32853000      1.67859000      5.36224000
  C      4.66110000      2.56277000      2.10974000
  O      5.10439000      3.78900000      2.51134000
  C      4.55227000     -1.23380000     -1.63978000
  O      5.77000000     -1.59022000     -2.16216000
  C      0.78882400      4.69625000      2.78933000
  O      1.02974000      5.25331000      3.93309000
  C     -0.11758000     -4.47695000     -2.37930000
  O     -0.03710670     -5.60011000     -2.99381000
  C      2.58904000     -4.58320000     -0.79439800
  O      3.24103000     -5.71384000     -0.72993800
  C      0.27141100     -1.72658000     -4.90009000
  O      0.32751100     -2.22414000     -6.12335000
  C      4.92754000      1.37583000     -2.09043000
  O      6.05695000      1.99050000     -2.09086000
  C     -3.93222000      4.66909000     -1.05196000
  O     -3.89331000      5.94628000     -1.26350000
  C      2.49803000      2.44773000     -4.47524000
  O      3.26443000      3.31331000     -5.01740000
  C     -3.37992000      1.67099000      3.31725000
  O     -4.34929000      1.90551000      4.14277000
  C      2.95745000     -0.31340500     -4.18329000
  O      3.70334000     -0.36068100     -5.26836000
  C     -3.04119000     -1.35169000      4.21823000
  O     -3.59260000     -1.58004000      5.45100000
  C     -0.38494600      1.36305000      5.10188000
  O     -0.63625600      1.89623000      6.25667000
  C     -2.19268000      3.02428000     -4.38533000
  O     -3.06676000      3.76812000     -4.93920000
  C     -4.94259000     -0.15368900      1.40368000
  O     -6.17479000     -0.30312000      1.75557000
  C      2.62652000     -3.31430000     -3.10810000
  O      3.27073000     -4.04393000     -3.98397000
  C     -2.91749000     -0.25348500     -4.25188000
  O     -3.58776000     -0.27308500     -5.40789000
  C     -1.06518000     -3.55867000      3.39527000
  O     -1.28516000     -4.53700000      4.32203000
  C      0.13929900      5.32643000      1.38600000
  O      0.23565700      6.54945000      0.96337300
  C     -0.00122271     -5.54332000      0.86352300
  O     -0.24253300     -6.77892000      1.09281000
  C      4.18987000     -2.58730000      0.98095600
  O      5.30493000     -3.21268000      1.18802000
  C      0.14792300      4.47517000     -2.80678000
  O      0.11652400      5.51230000     -3.60618000
