110
Energy = -12436.84778019 au
 Ni      0.03828130     -0.99368900     -3.92219000
 Ni     -0.01896660     -1.48866000     -0.21500900
 Ni      1.48829000      1.16339000     -3.69043000
 Ni     -2.34529000     -0.71441000      3.69837000
 Ni     -1.94786000     -2.30967000      1.65301000
 Ni      1.77347000     -1.36879000      1.69399000
 Ni      1.35668000      0.65907400      0.11032000
 Ni     -0.80167700      1.56578000      4.04745000
 Ni     -1.80555000     -1.71498000     -2.17401000
 Ni     -2.74214000      1.99076000     -1.69893000
 Ni     -0.40325800      0.52992900     -1.77816000
 Ni     -2.15747000      0.40685400     -3.66480000
 Ni     -4.44971000      1.28057000      0.13666600
 Ni      0.55894200      4.16806000      0.59251400
 Ni     -0.82782700      2.00989000      0.30350900
 Ni     -4.00594000     -0.29764300     -1.89086000
 Ni     -4.01132000     -0.93131000      1.82454000
 Ni      0.41187800     -3.02554000     -2.47382000
 Ni     -1.26961000      4.04204000     -1.24394000
 Ni      1.83570000     -0.84025600     -2.03639000
 Ni     -3.07336000      3.36682000      0.45298900
 Ni     -2.19152000     -0.12903900     -0.02152560
 Ni     -1.39881000     -3.65945000     -0.56684000
 Ni      2.26660000     -2.94240000     -0.48216900
 Ni     -1.24511000      3.50436000      2.40635000
 Ni      0.98923400      2.11640000      2.27949000
 Ni     -0.78192400      2.55613000     -3.33399000
 Ni      3.23309000      1.32054000     -1.71215000
 Ni     -0.16475500     -2.08704000      3.45274000
 Ni     -2.83600000      1.45164000      2.25063000
 Ni      1.40090000      0.18507500      3.79731000
 Ni      3.23220000      0.75396300      1.95030000
 Ni     -3.60397000     -2.31354000     -0.42501400
 Ni     -0.44804900     -0.00509140      1.86284000
 Ni      3.68311000     -0.72675500     -0.09167750
 Ni      2.80214000      2.82668000      0.41407000
 Ni      0.40245300     -3.61204000      1.34615000
 Ni      0.93445800      2.65686000     -1.47572000
  C     -4.53764000     -2.05828000     -2.00897000
  O     -5.55793000     -2.64037000     -2.48008000
  C      3.68140000     -0.07373940      3.65836000
  O      4.73113000     -0.03547960      4.49083000
  C     -0.57467600     -2.72767000     -4.03717000
  O     -0.81059100     -3.44404000     -5.07027000
  C      0.62711600      5.07494000     -1.87466000
  O      0.31744600      6.20762000     -2.35013000
  C     -3.13225000      3.82841000     -1.40864000
  O     -3.87230000      4.71276000     -1.99814000
  C      0.62403700     -4.04368000      3.31303000
  O      0.59622200     -5.10470000      4.14149000
  C      3.52694000     -2.97988000      2.27151000
  O      4.25526000     -3.69327000      3.05798000
  C      0.95061900      1.75833000      4.64221000
  O      1.36987000      2.24881000      5.74224000
  C     -2.58159000      2.28743000     -4.34569000
  O     -3.16200000      2.87228000     -5.43201000
  C     -3.33903000     -1.22531000     -4.06187000
  O     -3.88067000     -1.48834000     -5.27537000
  C     -0.11071400      0.44782300     -5.47261000
  O      0.04858350      0.36297900     -6.78633000
  C      2.47935000      4.98609000      0.50584800
  O      3.06510000      6.17675000      0.46436400
  C     -1.24064000     -5.03598000      0.90676300
  O     -1.68938000     -6.27133000      1.16151000
  C      1.02700000     -4.81484000     -2.03937000
  O      1.20494000     -5.91940000     -2.70952000
  C      3.15297000      3.25032000     -2.25893000
  O      3.92848000      4.14497000     -2.87840000
  C     -4.03565000     -0.01325440      3.45017000
  O     -5.00864000      0.13058900      4.28209000
  C     -5.62187000     -0.47739400      0.43817300
  O     -6.95485000     -0.39192500      0.73785400
  C      2.23576000     -2.29862000     -3.72351000
  O      3.03749000     -2.78404000     -4.65281000
  C     -3.94155000     -2.88785000      1.31813000
  O     -4.75224000     -3.82111000      1.66192000
  C      1.80703000     -4.78020000      0.55429700
  O      2.25268000     -6.03501000      0.71997200
  C      0.92066600      3.14590000     -4.39129000
  O      1.09704000      3.95678000     -5.44371000
  C     -4.41950000      2.54416000      1.49511000
  O     -5.35183000      3.31474000      1.88830000
  C      1.41637000     -1.73220000      4.79574000
  O      1.69780000     -2.10551000      6.05164000
  C     -2.56077000     -4.11578000     -2.11212000
  O     -3.06493000     -5.22138000     -2.64840000
  C     -1.58880000      4.84397000      0.79055000
  O     -1.95754000      6.03734000      1.13358000
  C      3.32957000      0.65953400     -4.26707000
  O      3.91163000      0.82648500     -5.41748000
  C     -4.56420000      1.51530000     -1.77684000
  O     -5.56202000      1.90756000     -2.49602000
  C      3.49159000      2.89887000      2.45486000
  O      4.32475000      3.63562000      3.21418000
  C      4.56398000     -0.21689700     -2.14815000
  O      5.76186000     -0.32142500     -2.72218000
  C      4.16849000     -3.14502000     -1.20932000
  O      4.96717000     -4.03295000     -1.40536000
  C      5.07114000     -0.96938100      1.21686000
  O      6.38030000     -1.19680000      1.22568000
  C     -2.23751000      2.75401000      3.77663000
  O     -2.88090000      3.41377000      4.67365000
  C     -2.20254000     -2.55711000      3.63374000
  O     -2.84406000     -3.37661000      4.38357000
  C      4.74802000      1.99200000     -0.18071600
  O      5.96559000      2.54602000     -0.12966000
  C      0.45515300      4.20619000      3.24815000
  O      0.81120800      5.31790000      3.95052000
  C     -1.27730000      0.07595000      5.32673000
  O     -1.68534000      0.11261800      6.63007000
