#B3LYP/6-31+G(d) OPT FREQ

110, Energy = -12003.01840997 au

0 1
 Ni      0.43209800     -3.51400000     -2.46030000
 Ni     -1.34802000     -0.52465100     -1.17736000
 Ni      1.19340000     -4.14553000     -0.06253210
 Ni     -1.00641000      3.93885000     -0.22615900
 Ni     -1.55452000      1.97743000     -1.91693000
 Ni     -2.94027000     -0.04073520      0.78341100
 Ni     -0.62162200     -1.11334000      1.20463000
 Ni     -0.28735300      3.28848000      2.16012000
 Ni      0.24458800     -0.99454100     -3.18894000
 Ni      3.11641000     -0.17761100     -1.10081000
 Ni      0.95495700     -1.60563000     -0.76878900
 Ni      2.57343000     -2.05943000     -2.77707000
 Ni      2.90121000      2.31761000     -1.82237000
 Ni      2.28861000     -0.30117500      3.30084000
 Ni      1.49578000      0.29209300      0.89818300
 Ni      2.35892000      0.45102900     -3.51698000
 Ni      0.59543300      3.40520000     -2.24009000
 Ni     -1.92797000     -2.45013000     -2.86624000
 Ni      3.82461000     -0.76498900      1.34542000
 Ni     -1.17887000     -3.02259000     -0.48803300
 Ni      3.66714000      1.73484000      0.61180900
 Ni      0.77075300      0.88385200     -1.48668000
 Ni     -2.12594000      0.09064680     -3.58389000
 Ni     -3.49224000     -1.97974000     -0.91182300
 Ni      2.07553000      2.16641000      2.60070000
 Ni     -0.07916760      0.76101100      2.87126000
 Ni      3.25345000     -2.70059000     -0.38181500
 Ni     -0.42040900     -3.62466000      1.93096000
 Ni     -3.13979000      2.44162000      0.06851760
 Ni      1.30878000      2.78200000      0.17733600
 Ni     -2.41581000      1.82629000      2.49247000
 Ni     -2.21542000     -0.67734500      3.22746000
 Ni      0.06249590      1.50159000     -3.90453000
 Ni     -0.80541000      1.37003000      0.48853300
 Ni     -2.76062000     -2.56735000      1.50717000
 Ni      0.11151200     -1.74666000      3.62353000
 Ni     -3.69808000      0.53315700     -1.59376000
 Ni      1.71745000     -2.21974000      1.62730000
  C     -1.68648000     -1.38188000     -4.88487000
  O     -2.24786000     -1.63674000     -6.15441000
  C      1.11530000      0.47112100     -5.20579000
  O      1.35490000      0.66268000     -6.47875000
  C     -0.04453990      5.61141000      0.99564500
  O     -0.50502500      6.79882000      0.80850900
  C     -1.55920000     -2.51859000      4.68535000
  O     -1.72540000     -2.88241000      5.90708000
  C     -1.67617000      3.41369000      3.77066000
  O     -1.95883000      4.48956000      4.51134000
  C     -5.03616000     -1.26372000      0.36575600
  O     -6.28059000     -1.70907000      0.28933300
  C     -3.90704000      0.80846700     -3.58132000
  O     -5.14113000      1.04713000     -4.17474000
  C      4.60965000      1.33957000     -1.73983000
  O      5.72450000      1.75618000     -2.23524000
  C     -2.19368000     -4.60054000      2.26481000
  O     -2.45910000     -5.68385000      2.99726000
  C      5.53687000      0.31043800      0.31476300
  O      6.71504000      0.04440130      0.86453600
  C     -0.78235200      4.93274000     -3.01243000
  O     -0.48451500      5.99038000     -3.66977000
  C     -2.88653000      3.61421000     -1.75528000
  O     -3.66299000      4.58979000     -2.27621000
  C      3.80714000     -0.98414100     -3.81095000
  O      4.60024000     -1.06290000     -4.90542000
  C     -3.04472000     -3.99603000     -0.20805500
  O     -3.81643000     -5.01830000     -0.29563400
  C      3.05158000     -4.30156000      0.84938000
  O      3.93205000     -5.31021000      0.88414100
  C      4.40094000      3.82889000      1.05703000
  O      5.59262000      4.22411000      1.33102000
  C      2.25109000      2.77174000     -3.66087000
  O      2.94506000      3.51129000     -4.46247000
  C      3.67533000      1.20730000      3.36860000
  O      4.61937000      1.52483000      4.36113000
  C      2.29360000      4.31423000     -0.77853600
  O      2.93432000      5.52610000     -0.96044500
  C      2.49031000     -4.01939000     -2.24929000
  O      2.90971000     -5.02666000     -2.94127000
  C      1.59356000     -1.17517000      5.07501000
  O      2.05010000     -1.45804000      6.24508000
  C      0.87684100      1.88665000      4.52981000
  O      1.06785000      2.36085000      5.73966000
  C      3.70577000     -2.08031000      2.77778000
  O      4.68229000     -2.59464000      3.43750000
  C     -0.48609200     -5.43830000     -0.25656500
  O     -0.11184900     -6.66859000     -0.22475000
  C      1.37632000     -3.76613000      3.09220000
  O      1.68324000     -4.87081000      3.86816000
  C     -3.15430000      4.03122000      1.60418000
  O     -4.14410000      4.89013000      1.70261000
  C      4.64104000     -1.79342000     -1.67049000
  O      5.73742000     -2.46077000     -1.82541000
  C     -1.85863000      0.80778900      4.69979000
  O     -2.39426000      0.99575500      5.90626000
  C     -1.75311000      2.28929000     -4.23994000
  O     -2.11477000      2.84043000     -5.34979000
  C     -4.27720000      0.96096100      2.65439000
  O     -5.32494000      1.30345000      3.37410000
  C      0.91398300     -2.40799000     -4.39806000
  O      1.09138000     -2.93248000     -5.55628000
  C     -1.28534000     -4.37909000     -2.83679000
  O     -1.58163000     -5.36256000     -3.62189000
  C     -3.91772000     -1.73826000      3.14972000
  O     -4.89044000     -2.36675000      3.79134000
  C     -3.86756000     -2.17132000     -2.80226000
  O     -4.83639000     -2.77025000     -3.40840000
  C     -4.84582000      1.52298000     -0.20515500
  O     -6.07681000      1.88563000     -0.31712500
  C      1.63369000      4.22126000      2.30995000
  O      2.13352000      5.32764000      3.11228000

