110
Energy = -12333.87704779 au
 Ni     -2.17298000     -2.09571000     -2.54659000
 Ni      0.02013090      0.82610200     -1.42023000
 Ni     -2.89445000     -2.54554000      0.04032740
 Ni      4.15387000      2.09988000     -0.15480300
 Ni      2.38705000      1.75778000     -2.02478000
 Ni     -0.36478800      2.84847000      0.25316800
 Ni     -0.62595800      0.35465500      1.06824000
 Ni      3.58609000      1.61487000      2.29820000
 Ni      0.27277500     -1.18421000     -3.19274000
 Ni      1.80048000     -3.30868000     -0.38071000
 Ni     -0.32222600     -1.63104000     -0.61277900
 Ni     -0.04140610     -3.60640000     -2.35711000
 Ni      3.99375000     -2.31844000     -1.04399000
 Ni      0.82910800     -1.78553000      3.88524000
 Ni      1.43787000     -1.23229000      1.26201000
 Ni      2.32407000     -2.65781000     -2.89473000
 Ni      4.35100000      0.19481900     -1.81573000
 Ni     -1.78274000      0.42573900     -3.34227000
 Ni      1.14628000     -3.78963000      2.09761000
 Ni     -2.39422000     -0.03381810     -0.78723400
 Ni      3.46362000     -2.88642000      1.48073000
 Ni      2.04525000     -0.73563000     -1.19804000
 Ni      0.71191800      1.37852000     -3.92588000
 Ni     -2.23008000      2.55361000     -1.63574000
 Ni      3.16548000     -0.87729100      3.14421000
 Ni      1.11664000      0.79061300      2.96049000
 Ni     -0.59924800     -4.12198000      0.16988600
 Ni     -3.25794000     -0.54394900      1.77783000
 Ni      2.14144000      3.70985000     -0.33503200
 Ni      4.15372000     -0.41360800      0.74362300
 Ni      1.38992000      3.18538000      2.25519000
 Ni     -1.10623000      2.38958000      2.80709000
 Ni      2.57246000     -0.21985800     -3.77883000
 Ni      1.78978000      1.21079000      0.44989300
 Ni     -2.91532000      2.06492000      0.89981200
 Ni     -1.36513000     -0.18606900      3.56680000
 Ni      0.32651100      3.37455000     -2.32798000
 Ni     -1.00679000     -2.15479000      1.91189000
  C     -3.19581000      3.10650000      2.84759000
  O     -4.03308000      3.83225000      3.54566000
  C      0.70652300      3.26231000     -4.17414000
  O      0.82088400      4.04043000     -5.19690000
  C      5.02154000     -2.10955000      0.65784500
  O      6.23899000     -2.56576000      0.69411500
  C      2.81971000     -2.88398000      3.34799000
  O      3.49527000     -3.51584000      4.26108000
  C      1.23666000      4.87421000      1.23217000
  O      1.50021000      6.14217000      1.68758000
  C     -2.76014000     -1.26609000     -4.23727000
  O     -3.48210000     -1.60690000     -5.32140000
  C     -2.53178000     -4.52159000      0.86343300
  O     -3.29468000     -5.62356000      0.96082000
  C     -3.84608000      0.03575020      3.52295000
  O     -4.81864000     -0.02820280      4.39858000
  C     -0.54544700      0.24281100     -5.19272000
  O     -0.75537700      0.26009300     -6.53279000
  C      2.32281000     -4.72176000     -1.86612000
  O      3.08675000     -5.51907000     -2.64940000
  C     -4.72833000     -0.08610360     -2.02985000
  O     -5.89569000      0.14956100     -2.51875000
  C     -0.40542700     -4.65878000      2.99980000
  O     -0.29894500     -5.77989000      3.66162000
  C      3.15465000      3.18677000      3.54222000
  O      3.78333000      3.95228000      4.43847000
  C      2.53419000     -4.49798000      0.94521500
  O      3.17142000     -5.62980000      0.95212700
  C      1.06031000     -2.49576000     -4.31079000
  O      1.06966000     -2.90126000     -5.53488000
  C     -1.36258000      4.46739000     -2.09460000
  O     -1.76069000      5.60334000     -2.72437000
  C      0.00632970      3.39890000      4.10150000
  O     -0.19820500      4.31783000      5.04621000
  C      1.68906000      5.02415000     -1.70097000
  O      2.15723000      6.20209000     -2.13596000
  C     -2.76673000      2.09661000     -3.64573000
  O     -3.48503000      2.66329000     -4.63892000
  C     -4.73313000     -1.73926000      0.79429400
  O     -5.92060000     -2.23909000      1.14525000
  C     -0.18335000     -2.24265000      5.52964000
  O     -0.06816810     -2.85723000      6.64014000
  C     -1.80734000     -4.07439000     -3.32883000
  O     -2.11227000     -5.03895000     -4.19706000
  C     -3.95766000      3.14407000     -1.03626000
  O     -4.87924000      4.05427000     -1.27946000
  C      2.22697000      0.81590600     -5.65278000
  O      3.23356000      0.95621700     -6.47459000
  C      3.79056000      2.50195000     -3.13552000
  O      4.72878000      3.26069000     -3.61127000
  C      4.74590000      0.05935440      2.48451000
  O      5.93461000      0.07929110      3.00335000
  C     -1.81060000      4.54216000      0.99849000
  O     -2.06635000      5.78278000      1.07631000
  C      4.15554000     -1.56581000     -2.97439000
  O      5.19440000     -1.98244000     -3.63579000
  C      1.98931000      0.34722500      4.80734000
  O      2.42692000      0.74750700      6.00804000
  C      3.93311000      3.96355000      0.99311300
  O      5.12055000      4.61865000      0.88058000
  C     -3.86061000     -3.03145000     -1.73140000
  O     -4.90009000     -3.75792000     -2.16687000
  C     -4.75553000      1.12400000      0.91014000
  O     -6.00395000      1.48060000      1.12549000
  C      0.14093800     -5.64734000     -1.37925000
  O     -0.00411209     -6.93869000     -1.22640000
  C     -1.11538000      1.01156000      5.03766000
  O     -1.39958000      1.16173000      6.30345000
  C     -2.54946000     -2.50707000      3.25048000
  O     -3.11375000     -3.38366000      4.06173000
  C      5.40903000      0.62521100     -0.22502800
  O      6.70298000      0.60926400     -0.39138500
