#B3LYP/6-31+G(d) OPT FREQ

110, Energy = -11709.80334535 au

0 1
 Ni      0.91187800     -3.08313000     -1.92672000
 Ni     -1.09230000     -0.11033100     -1.01681000
 Ni      1.23652000     -3.68426000      0.56810600
 Ni     -0.97989800      4.35959000     -0.11033100
 Ni     -1.19516000      2.35743000     -1.79711000
 Ni     -2.97243000      0.35607800      0.65895300
 Ni     -0.75898800     -0.64943300      1.46129000
 Ni     -0.64830700      3.75725000      2.38846000
 Ni      0.79099000     -0.58275800     -2.69524000
 Ni      3.23896000      0.32971300     -0.19538200
 Ni      1.12559000     -1.13967000     -0.21681200
 Ni      3.04306000     -1.59561000     -1.92636000
 Ni      3.15805000      2.80374000     -0.98743200
 Ni      1.70704000      0.25534600      3.99509000
 Ni      1.35669000      0.78903800      1.47933000
 Ni      2.93231000      0.88779200     -2.70918000
 Ni      0.91543700      3.82425000     -1.80146000
 Ni     -1.33859000     -2.04340000     -2.75302000
 Ni      3.61072000     -0.21449700      2.29994000
 Ni     -0.98186500     -2.57075000     -0.23694200
 Ni      3.50455000      2.25780000      1.50473000
 Ni      1.02345000      1.32819000     -0.99879000
 Ni     -1.45650000      0.42497000     -3.53319000
 Ni     -3.24122000     -1.57460000     -1.05902000
 Ni      1.59480000      2.72465000      3.21105000
 Ni     -0.52169600      1.26648000      3.16757000
 Ni      3.35539000     -2.16263000      0.57445100
 Ni     -0.65208400     -3.14989000      2.26450000
 Ni     -3.08823000      2.84666000     -0.12191800
 Ni      1.24696000      3.25421000      0.70443600
 Ni     -2.77795000      2.26926000      2.39122000
 Ni     -2.66955000     -0.20420500      3.17754000
 Ni      0.68835400      1.90404000     -3.50521000
 Ni     -0.86099100      1.81883000      0.67937600
 Ni     -2.89504000     -2.12940000      1.45756000
 Ni     -0.42089400     -1.21865000      3.96730000
 Ni     -3.35311000      0.89529000     -1.84529000
 Ni      1.45530000     -1.67309000      2.25794000
  C      0.67791100     -1.43904000     -4.84040000
  O      0.86183200     -1.79554000     -6.03232000
  C      4.99109000     -0.10954400     -2.05943000
  O      5.98171000     -0.04725720     -2.91606000
  C     -4.90767000     -0.56068300      0.74671300
  O     -6.19197000     -0.69241000      0.94295300
  C     -1.30468000     -4.84354000     -0.33693900
  O     -1.63266000     -6.04911000     -0.42196600
  C     -4.10666000     -4.25281000      0.25076900
  O     -5.16407000     -4.75656000      0.78864200
  C     -0.57345700      1.60750000     -5.08317000
  O     -0.71034000      1.93235000     -6.42678000
  C      0.72459600      1.57363000      5.18360000
  O      1.15939000      2.21280000      6.21420000
  C      0.71581800     -4.92087000      2.40012000
  O      0.82874500     -6.20820000      2.60927000
  C      2.20318000     -4.61457000     -1.05707000
  O      2.65227000     -5.88679000     -1.25167000
  C      3.05067000      3.52803000     -2.81728000
  O      4.02720000      4.43144000     -3.20499000
  C     -2.47825000     -1.18841000     -4.65447000
  O     -3.07368000     -1.57707000     -5.74432000
  C     -4.99560000     -0.30765200     -2.47187000
  O     -6.13727000     -0.68095600     -2.95468000
  C      5.01202000      1.72903000      0.17501100
  O      6.14670000      2.30268000      0.00460470
  C      0.09384160      3.78345000     -3.72886000
  O      0.29155200      4.83831000     -4.45243000
  C     -0.68355000     -4.15094000     -4.00468000
  O     -0.49338100     -5.29693000     -4.56034000
  C      1.10159000      5.65143000     -0.56336500
  O      0.68610100      6.89887000     -0.65781800
  C     -1.06515000      0.09231960      5.45601000
  O     -1.48404000     -0.16583800      6.67600000
  C     -5.08096000      1.95279000     -0.85088900
  O     -6.03278000      2.85271000     -0.96379400
  C     -2.48340000     -3.32406000      3.88009000
  O     -2.85919000     -4.44692000      4.37341000
  C      4.67033000     -2.41882000     -0.91571800
  O      5.79680000     -3.19818000     -0.90037000
  C     -2.98901000      2.00316000     -4.01665000
  O     -3.97993000      2.40368000     -4.75486000
  C      3.22117000     -3.27147000      2.51071000
  O      4.12023000     -4.16521000      2.86695000
  C      3.71082000     -0.93854700      4.27460000
  O      4.13082000     -1.02023000      5.51836000
  C     -1.76074000      2.44637000      4.19336000
  O     -2.26110000      3.07545000      5.19400000
  C      3.53075000      2.41378000      3.82020000
  O      4.70830000      3.10714000      4.24438000
  C     -5.16886000      1.67296000      2.23682000
  O     -5.89758000      2.38461000      3.02590000
  C      1.28056000      4.69231000      3.00544000
  O      1.07850000      5.77962000      3.79175000
  C      5.42678000     -0.33565300      1.12982000
  O      6.44564000     -0.56914200      1.96105000
  C      2.87391000     -2.69335000     -4.29922000
  O      3.81182000     -3.44765000     -4.76312000
  C     -4.42115000     -1.76273000      4.21992000
  O     -5.27919000     -1.74551000      5.18325000
  C     -2.45223000      4.24144000      1.47070000
  O     -2.97856000      5.40763000      1.71545000
  C      2.54597000      1.11357000     -4.67937000
  O      3.24701000      1.40707000     -5.75371000
  C      2.97271000      4.24754000      0.68227200
  O      3.62128000      5.34100000      0.87365900
  C      0.92663800     -2.88940000      4.10277000
  O      1.09707000     -3.50087000      5.25221000
  C     -3.02310000     -3.45717000     -2.27975000
  O     -3.88154000     -4.27090000     -2.84829000
  C     -2.25453000      4.07234000     -1.83718000
  O     -2.84022000      5.10489000     -2.32230000

