110
Energy = -12809.53698053 au
 Ni      0.04329480     -3.70141000     -2.37712000
 Ni     -1.77648000     -0.61107800     -1.13910000
 Ni      1.03691000     -4.12363000      0.03940570
 Ni     -1.53989000      4.03310000     -0.44629500
 Ni     -2.29288000      2.06215000     -2.23058000
 Ni     -3.80226000     -0.17466700      1.04109000
 Ni     -0.95931200     -1.02301000      1.29297000
 Ni     -0.68271400      3.67897000      2.08406000
 Ni     -0.20895800     -1.22211000     -3.27656000
 Ni      2.78979000     -0.12480300     -1.33619000
 Ni      0.63737400     -1.63730000     -0.73205200
 Ni      2.28213000     -2.28700000     -2.88164000
 Ni      2.35169000      2.35728000     -2.36634000
 Ni      2.17964000      0.14143000      3.47460000
 Ni      1.18469000      0.46543000      0.81096400
 Ni      1.94612000      0.23651900     -3.72518000
 Ni     -0.11591100      3.35563000     -2.49503000
 Ni     -2.37648000     -2.60443000     -2.69127000
 Ni      3.65250000     -0.50311000      1.18672000
 Ni     -1.67668000     -3.50472000     -0.42751400
 Ni      3.45748000      2.08810000      0.23964500
 Ni      0.30086400      0.83636600     -1.65640000
 Ni     -2.77501000     -0.24353000     -3.56129000
 Ni     -3.94585000     -2.00848000     -0.84923400
 Ni      1.69826000      2.52589000      2.50308000
 Ni     -0.42807500      1.10658000      2.87528000
 Ni      3.12009000     -2.77722000     -0.40253600
 Ni     -0.60961900     -3.64705000      2.13415000
 Ni     -3.48985000      2.48970000     -0.05498600
 Ni      0.84609800      2.98830000     -0.07334340
 Ni     -2.93846000      1.95954000      2.36343000
 Ni     -2.55448000     -0.50657600      3.44201000
 Ni     -0.42243900      1.32140000     -4.11433000
 Ni     -1.23947000      1.44875000      0.37721100
 Ni     -3.10338000     -2.64882000      1.78023000
 Ni      0.05628340     -1.48867000      3.90759000
 Ni     -4.21224000      0.37749100     -1.63673000
 Ni      1.53321000     -2.10754000      1.89384000
  C      0.66717000      0.04798200     -5.56692000
  O      1.22849000      0.13131300     -6.77622000
  C      0.68370700     -2.79860000     -3.92649000
  O      0.60403900     -3.20072000     -5.16029000
  C     -1.73957000     -1.00082000     -5.09955000
  O     -2.04725000     -1.49203000     -6.30532000
  C     -1.72107000     -4.35737000     -2.39345000
  O     -2.14489000     -5.43923000     -2.95184000
  C      1.77714000     -4.31846000     -1.76086000
  O      2.26905000     -5.41703000     -2.24762000
  C     -5.14092000     -0.65282200     -0.24825800
  O     -6.41795000     -0.83916300     -0.07983930
  C     -3.12376000      1.23157000      4.34237000
  O     -4.03171000      1.48270000      5.31683000
  C     -4.24359000     -1.80274000     -2.89576000
  O     -5.15318000     -2.36858000     -3.61895000
  C     -4.11382000     -1.28621000      2.64283000
  O     -5.24108000     -1.46930000      3.26424000
  C      3.81682000      1.43261000     -3.21510000
  O      4.91415000      1.75868000     -3.94313000
  C      5.11992000     -3.47870000     -1.24771000
  O      5.90106000     -4.49204000     -1.11740000
  C      1.14925000      2.69398000     -3.97970000
  O      1.51999000      3.48451000     -4.93745000
  C     -2.33198000     -3.91149000      3.00499000
  O     -2.87448000     -4.97517000      3.69109000
  C      2.63844000      1.96461000      4.27507000
  O      3.48017000      2.48843000      5.18468000
  C      0.05309450      0.84579000      4.78152000
  O     -0.18063400      1.42295000      5.97302000
  C      0.09214490      5.25094000      0.99572100
  O     -0.08041880      6.57128000      0.89050000
  C     -2.67301000      2.03187000     -4.14675000
  O     -2.77619000      2.87646000     -5.12642000
  C      3.83600000     -2.19002000      2.12897000
  O      4.76005000     -2.86209000      2.85952000
  C      4.77050000     -0.38478200     -0.56246500
  O      6.04448000     -0.41161700     -1.02256000
  C     -1.78621000      4.67474000     -2.28974000
  O     -1.60566000      5.82410000     -2.85362000
  C     -2.63817000      3.80600000      1.68881000
  O     -3.32935000      4.77331000      2.20989000
  C     -3.54628000     -3.59462000      0.16159500
  O     -4.21986000     -4.70608000      0.10362500
  C      2.19049000      4.24320000     -1.63259000
  O      2.72841000      5.46512000     -1.79312000
  C      2.52500000      4.01002000      1.57878000
  O      3.04066000      5.20373000      1.93312000
  C     -1.59431000     -1.62484000      4.90173000
  O     -1.87220000     -2.01887000      6.17891000
  C      0.64442400     -3.23591000      3.48518000
  O      1.11366000     -4.08207000      4.34868000
  C      2.08946000     -1.19329000      4.88958000
  O      2.72731000     -1.46293000      6.03280000
  C     -3.13937000      3.88732000     -1.60831000
  O     -4.29085000      4.43025000     -1.87307000
  C     -4.54512000      1.58215000      1.22921000
  O     -5.79904000      1.77904000      1.50879000
  C      3.89886000     -1.36067000     -3.77044000
  O      4.79951000     -1.78545000     -4.64110000
  C      2.29660000     -4.55285000      1.41823000
  O      2.76132000     -5.69910000      1.91573000
  C      4.84117000      3.20871000     -0.79424600
  O      5.98144000      3.69843000     -0.49918700
  C     -0.65803300     -4.83585000      0.51812000
  O     -1.04090000     -6.07235000      0.39408400
  C     -4.14431000      1.39969000     -3.67171000
  O     -5.36654000      1.53973000     -3.95820000
  C     -0.21462500      3.75747000      4.07679000
  O     -0.28469500      4.75277000      4.90444000
  C      4.45295000      0.89267200      2.24314000
  O      5.68537000      0.97371900      2.77434000
