110
Energy = -12574.58174907 au
 Ni     -0.11534300     -3.58961000     -2.44818000
 Ni     -1.36242000     -0.18107000     -1.30051000
 Ni      0.33396700     -4.15044000      0.01640300
 Ni     -0.19149600      4.08988000     -0.38760800
 Ni     -1.18229000      2.33712000     -2.23439000
 Ni     -3.06349000      0.65207600      0.60035200
 Ni     -0.83390500     -0.83048500      1.14843000
 Ni      0.45548300      3.51821000      2.04139000
 Ni      0.22202800     -1.20315000     -3.41093000
 Ni      3.36809000     -0.75805900     -1.17352000
 Ni      0.70696300     -1.68206000     -0.79229500
 Ni      2.31944000     -2.56820000     -2.75278000
 Ni      3.38347000      1.85903000     -1.86816000
 Ni      2.10097000     -0.53011300      3.39014000
 Ni      1.56504000      0.13486100      0.86141900
 Ni      2.55064000      0.05352380     -3.50636000
 Ni      1.48592000      3.26312000     -2.37232000
 Ni     -2.43412000     -1.97135000     -2.86085000
 Ni      3.60063000     -1.38436000      1.35028000
 Ni     -1.79093000     -2.63958000     -0.60916400
 Ni      4.06870000      1.17642000      0.51642900
 Ni      1.00876000      0.78182700     -1.56150000
 Ni     -1.95968000      0.44137500     -3.80049000
 Ni     -3.90530000     -1.11307000     -1.18045000
 Ni      2.42728000      1.93589000      2.53738000
 Ni     -0.00400072      0.94156100      2.84321000
 Ni      2.73190000     -3.26587000     -0.27114500
 Ni     -1.17580000     -3.32895000      1.93339000
 Ni     -2.65631000      3.13141000     -0.19160600
 Ni      2.04358000      2.72029000      0.15070200
 Ni     -2.05666000      2.52053000      2.46511000
 Ni     -2.37622000      0.03758780      3.16476000
 Ni      0.40195600      1.54130000     -4.05695000
 Ni     -0.51140200      1.62496000      0.37029400
 Ni     -3.25076000     -1.77189000      1.41921000
 Ni     -0.30856300     -1.51014000      3.65875000
 Ni     -3.60513000      1.27952000     -1.84260000
 Ni      1.20994000     -2.35534000      1.63197000
  C     -3.71743000      0.06308640     -3.27184000
  O     -4.71896000      0.17167000     -4.08951000
  C      3.65904000     -1.45808000     -4.23636000
  O      4.34191000     -1.67491000     -5.35777000
  C      1.59136000     -4.53613000     -1.39154000
  O      1.98049000     -5.74059000     -1.67473000
  C      3.82415000     -2.64090000     -1.65034000
  O      4.95851000     -3.16584000     -1.98160000
  C      0.76665800      2.54616000      4.20291000
  O      0.78780800      2.98730000      5.46489000
  C      0.35148800     -0.09920270     -4.89325000
  O      0.35806100     -0.38231900     -6.13755000
  C      4.88522000      2.89813000      0.63260900
  O      6.10061000      3.20548000      0.96532000
  C      3.19270000     -3.95892000      1.54066000
  O      3.86026000     -5.05590000      1.89850000
  C      2.25529000      2.11441000     -3.97466000
  O      2.78288000      2.66521000     -5.02575000
  C     -5.04090000     -1.97465000      0.71071900
  O     -6.19264000     -2.54239000      1.03948000
  C      0.98751300     -3.17322000     -3.88228000
  O      1.19441000     -3.85706000     -4.93410000
  C      3.78665000      0.82508600      3.51921000
  O      4.66584000      1.11553000      4.51248000
  C     -4.76332000      0.53813000     -0.67560100
  O     -5.99240000      0.79802400     -0.54397300
  C     -4.00018000      3.01861000      1.43229000
  O     -5.02594000      3.86032000      1.66563000
  C      2.32858000      3.77736000      2.16374000
  O      3.06884000      4.71406000      2.64986000
  C      5.40613000     -0.76484700      0.59088800
  O      6.62116000     -1.15991000      1.00202000
  C     -1.76596000     -1.92896000     -4.79331000
  O     -2.20682000     -2.64550000     -5.82797000
  C      0.00658302     -5.10046000      1.98853000
  O     -0.08103550     -6.41417000      2.18606000
  C     -2.69388000     -2.86351000      3.29905000
  O     -3.38023000     -3.71961000      4.10527000
  C     -1.81583000     -4.59247000     -2.29688000
  O     -2.09036000     -5.77847000     -2.81967000
  C      4.58759000      0.56655800     -1.79174000
  O      5.77042000      0.44831300     -2.21141000
  C     -3.45132000      3.12741000     -2.10733000
  O     -4.21522000      3.91105000     -2.74010000
  C      0.88526300     -0.36136300      5.12812000
  O      1.15959000     -0.47830500      6.43814000
  C      3.33124000     -2.12068000      3.50735000
  O      4.14267000     -2.67037000      4.42067000
  C     -1.30957000      2.04336000     -4.40365000
  O     -1.73325000      2.71093000     -5.39113000
  C      1.57250000      5.05710000     -0.28363900
  O      1.97840000      6.32616000     -0.19725900
  C      3.18836000      3.63167000     -1.79572000
  O      3.99659000      4.53579000     -2.08082000
  C     -1.95607000      4.93326000     -0.66041000
  O     -2.50360000      6.22451000     -0.74953900
  C     -3.97095000     -2.56511000     -2.16855000
  O     -4.95052000     -3.28539000     -2.50072000
  C     -1.77701000     -0.61869900      5.02893000
  O     -2.29273000     -0.83831400      6.23414000
  C      0.43117200     -3.30292000      3.91077000
  O      0.65004600     -4.19746000      4.87742000
  C     -1.15627000      4.77456000      2.17982000
  O     -1.25737000      5.89476000      2.90426000
  C     -0.11677000      4.30984000     -3.02428000
  O     -0.28189600      5.33241000     -3.89413000
  C     -4.26105000      0.27617800      2.71484000
  O     -5.42127000      0.45560700      3.34064000
  C     -2.27969000      2.20753000      4.41083000
  O     -2.96809000      2.92732000      5.27127000
  C     -2.56756000     -4.26261000      0.51661200
  O     -3.31732000     -5.38146000      0.36844400
