#B3LYP/6-31+G(d) OPT FREQ

110, Energy = -12115.23495052 au

0 1
 Ni      3.09399000      2.06272000     -2.17331000
 Ni      1.55970000      0.31573800      0.83854400
 Ni      0.97893700      3.40590000     -2.41872000
 Ni     -1.07237000     -3.28005000      2.25410000
 Ni      1.39745000     -2.21211000      1.69344000
 Ni      0.23125100      1.12842000      3.07833000
 Ni     -0.59277100      1.74307000      0.53901400
 Ni     -3.27687000     -1.70390000      1.93119000
 Ni      2.89679000     -0.45709100     -1.31698000
 Ni     -0.19266500     -0.84980600     -3.26329000
 Ni      0.75561600      0.95764800     -1.56872000
 Ni      2.06861000      0.24306400     -3.79430000
 Ni     -0.39882600     -3.39702000     -2.30064000
 Ni     -3.76008000      1.36571000     -1.36112000
 Ni     -1.57950000     -0.11738700     -1.04620000
 Ni      1.95085000     -2.32472000     -2.85279000
 Ni      0.31020900     -3.98947000      0.11016800
 Ni      3.99427000      1.36241000      0.24014600
 Ni     -2.48035000      0.51209800     -3.54368000
 Ni      1.72227000      2.79420000     -0.03830780
 Ni     -2.60584000     -1.98585000     -2.71296000
 Ni      0.56813200     -1.51072000     -0.72828600
 Ni      3.70937000     -1.18890000      1.17520000
 Ni      2.58443000      2.10763000      2.43565000
 Ni     -4.02214000     -1.20378000     -0.56286500
 Ni     -2.95265000      0.68113400      1.07751000
 Ni      0.01426400      1.70576000     -4.01806000
 Ni     -0.35877100      4.30805000     -0.29443200
 Ni      0.05589250     -1.34946000      3.89169000
 Ni     -1.83639000     -2.63724000     -0.20497600
 Ni     -2.24523000      0.14639900      3.50149000
 Ni     -1.93352000      2.66575000      2.72983000
 Ni      2.73811000     -2.99544000     -0.37311200
 Ni     -0.77080800     -0.74030000      1.37765000
 Ni      0.35333300      3.56250000      2.18268000
 Ni     -2.76397000      3.26668000      0.34721400
 Ni      2.41455000     -0.30537600      3.32753000
 Ni     -1.42905000      2.37661000     -1.93230000
  C     -5.39201000     -1.65630000      0.71706900
  O     -6.64473000     -2.05981000      0.73533500
  C      0.20969600     -4.86447000      2.09717000
  O      0.13716400     -6.10010000      2.60907000
  C      0.30175400      5.80743000     -1.30241000
  O     -0.00621319      7.06680000     -1.27422000
  C      4.71579000     -0.69646400      2.73250000
  O      5.84359000     -1.06132000      3.32338000
  C     -0.46741500      5.25192000      2.36144000
  O     -0.43053000      6.28540000      3.15890000
  C     -4.43597000      0.07300480      3.19398000
  O     -5.49092000      0.10421200      4.02678000
  C     -4.77061000      2.01743000      0.65883500
  O     -6.07696000      2.18409000      0.92207100
  C     -2.97310000      5.11962000      1.69375000
  O     -3.85420000      6.02284000      1.46214000
  C      4.82925000      1.32518000     -2.29296000
  O      5.95400000      1.77698000     -2.81897000
  C     -2.18398000     -4.52939000      0.19597300
  O     -3.07113000     -5.51331000      0.13657400
  C      2.66147000      4.09561000      1.67170000
  O      3.34809000      5.23668000      1.84899000
  C     -3.85531000      2.84659000     -2.57258000
  O     -4.59874000      3.87526000     -2.93314000
  C      3.32429000     -3.65296000     -2.25984000
  O      4.20873000     -4.50323000     -2.82531000
  C     -2.89434000      2.84440000      4.35264000
  O     -3.73706000      3.66295000      4.87346000
  C     -0.57596600     -3.14314000      4.42455000
  O     -0.81288400     -3.79458000      5.56889000
  C      2.25139000     -2.80108000      3.40689000
  O      2.82350000     -3.81509000      4.04992000
  C      1.14874000     -5.04833000     -1.26597000
  O      1.32699000     -6.37773000     -1.31583000
  C     -0.57991300      3.55976000     -4.25084000
  O     -0.55078000      4.73498000     -4.88283000
  C     -3.23810000     -3.26610000      3.11927000
  O     -4.12998000     -4.05227000      3.70838000
  C      3.66864000     -3.83224000      1.08516000
  O      4.50117000     -4.84419000      1.18022000
  C     -1.41036000     -0.07065720      5.28552000
  O     -1.89268000     -0.07098760      6.52270000
  C     -2.81273000      1.84607000     -4.84778000
  O     -3.33974000      2.08264000     -5.99828000
  C      4.85074000     -1.21043000     -0.53452900
  O      6.12552000     -1.47865000     -0.92901800
  C      3.12553000      4.16322000     -1.46669000
  O      3.60409000      5.37425000     -1.75515000
  C     -4.15503000     -3.04135000     -2.39528000
  O     -5.12632000     -3.76310000     -2.89387000
  C      2.17204000      2.33300000     -3.86834000
  O      2.72641000      2.93491000     -4.92049000
  C      1.54961000     -0.41240700      5.22135000
  O      2.04899000     -0.60968700      6.44853000
  C      0.85827600     -2.99204000     -4.32895000
  O      1.06299000     -3.59350000     -5.51677000
  C      5.48481000      2.44736000      0.58394100
  O      6.65644000      2.70656000      1.03355000
  C     -1.82470000     -4.46323000     -2.96175000
  O     -1.96485000     -5.56914000     -3.64387000
  C     -2.21796000     -1.28947000     -4.77672000
  O     -2.79537000     -1.85986000     -5.85981000
  C      3.84849000      1.65999000      3.79700000
  O      4.57913000      2.20748000      4.74015000
  C      3.50565000     -1.03518000     -4.00769000
  O      4.37664000     -1.21813000     -5.02139000
  C     -4.81027000     -0.01318320     -2.47337000
  O     -6.02896000      0.16775800     -3.04991000
  C      0.24789500      2.60900000      4.35111000
  O      0.45257500      2.95947000      5.64099000
  C      0.71739400      0.27098300     -5.12634000
  O      0.73366200      0.17668300     -6.41823000

