110
Energy = -12404.27502750 au
 Ni      0.36862300     -3.39038000     -2.56894000
 Ni     -1.63129000     -1.04277000     -0.51464900
 Ni      2.35428000     -3.25762000     -0.96906700
 Ni     -2.82630000      3.35816000      0.13901900
 Ni     -3.34509000      1.14708000     -1.10192000
 Ni     -2.08068000     -0.89088200      2.07231000
 Ni      0.37412400     -0.91617500      1.15654000
 Ni     -0.71624700      3.45563000      1.93187000
 Ni     -1.11608000     -1.31487000     -3.08143000
 Ni      1.85490000      0.90143100     -2.79569000
 Ni      0.84401300     -1.12325000     -1.39324000
 Ni      1.31473000     -1.33129000     -3.96634000
 Ni      0.22680800      2.94065000     -3.24324000
 Ni      3.36175000      1.31775000      1.53838000
 Ni      1.29612000      1.09726000     -0.17591200
 Ni     -0.17576200      0.80984500     -4.41583000
 Ni     -2.22853000      3.09045000     -2.40089000
 Ni     -2.16852000     -3.26861000     -1.69511000
 Ni      3.83365000      1.04074000     -1.05059000
 Ni     -0.13569400     -3.13141000     -0.07402980
 Ni      2.17919000      3.14466000     -1.43740000
 Ni     -0.69158900      0.95208700     -1.82001000
 Ni     -3.61261000     -1.20773000     -2.20201000
 Ni     -2.68996000     -3.10023000      0.81101000
 Ni      1.76368000      3.37877000      1.10857000
 Ni      0.83880700      1.34410000      2.48741000
 Ni      3.33003000     -1.16773000     -2.27964000
 Ni      1.85796000     -3.04148000      1.67221000
 Ni     -3.71196000      1.18804000      1.56298000
 Ni     -0.23368700      3.35614000     -0.68822800
 Ni     -1.66233000      1.36593000      3.38964000
 Ni     -0.06187950     -0.78216300      3.80749000
 Ni     -2.65807000      0.76778400     -3.51536000
 Ni     -1.17043000      1.18004000      0.69459600
 Ni     -0.58664700     -3.01322000      2.54265000
 Ni      2.41148000     -0.76746100      2.96618000
 Ni     -4.12635000     -1.08918000      0.36355000
 Ni      2.89000000     -0.99351400      0.31610300
  C      1.90075000     -0.65666100      4.88917000
  O      2.43936000     -0.80854000      6.10204000
  C      2.57608000     -4.66624000      0.48400000
  O      3.38633000     -5.72208000      0.67485100
  C      3.38292000     -2.59347000      2.93554000
  O      4.29050000     -3.24030000      3.70086000
  C     -1.87558000      2.43236000     -4.29048000
  O     -2.38121000      3.01798000     -5.33005000
  C     -0.15197500     -4.80281000      1.54595000
  O     -0.15281200     -6.13311000      1.70134000
  C      1.72510000      5.00906000     -1.00517000
  O      2.17230000      6.17037000     -1.46394000
  C      1.88886000      0.27046900     -4.80828000
  O      2.68288000      0.30052700     -5.83024000
  C      4.25898000      0.38556700      2.95277000
  O      5.40203000      0.50947300      3.66144000
  C     -3.57303000      1.03040000      3.84842000
  O     -4.37177000      1.29677000      4.88668000
  C     -2.86334000     -3.64023000      2.67840000
  O     -3.56396000     -4.63322000      3.24115000
  C      1.49779000      2.36599000     -5.04504000
  O      1.73044000      3.37864000     -5.91185000
  C      0.86404600      5.00765000      1.75064000
  O      1.17905000      6.21920000      2.22683000
  C     -0.85790100      4.32924000     -2.38218000
  O     -0.96008500      5.54633000     -2.81999000
  C      3.27708000     -3.31440000     -2.81822000
  O      4.18101000     -4.16761000     -3.34700000
  C     -1.73121000      5.01405000      0.44183000
  O     -2.11589000      6.32502000      0.44807900
  C     -1.53284000      3.56235000      3.68392000
  O     -1.90118000      4.50660000      4.56370000
  C      3.81783000      3.28249000      0.97253400
  O      4.79143000      4.15133000      1.37899000
  C     -3.77429000      3.02782000     -1.45929000
  O     -4.87173000      3.58182000     -1.88953000
  C     -0.36995100      1.07758000      4.99099000
  O     -0.40259000      1.42260000      6.29182000
  C      0.51358500     -3.10927000     -4.65829000
  O      0.69048300     -3.89528000     -5.75471000
  C     -2.45228000     -4.86271000     -0.40209600
  O     -3.19734000     -5.97171000     -0.63771600
  C      0.71288700     -3.32243000      3.99093000
  O      0.82452100     -4.22716000      4.95929000
  C      0.45234500     -5.14857000     -1.57860000
  O      0.33795900     -6.33805000     -2.15117000
  C     -4.52951000      0.07383380     -3.44514000
  O     -5.54438000     -0.04610480     -4.36825000
  C     -1.76818000     -1.57226000      4.44558000
  O     -2.37849000     -1.95116000      5.57546000
  C     -4.35610000     -2.58415000     -0.84700900
  O     -5.49138000     -3.16744000     -1.07092000
  C     -1.48369000     -0.67259100     -5.17270000
  O     -1.52056000     -1.09302000     -6.45157000
  C     -4.84280000      0.58500600     -0.10105600
  O     -6.07931000      0.86579500     -0.38772000
  C     -4.61785000     -1.07460000      2.21972000
  O     -5.69104000     -1.48458000      2.94075000
  C     -4.15109000      3.18560000      1.62158000
  O     -5.24271000      3.91497000      1.99155000
  C      4.51620000     -2.00293000     -0.02708030
  O      5.76049000     -2.27592000      0.30383900
  C      4.79550000     -0.07418720     -2.94664000
  O      5.92008000     -0.22072800     -3.62577000
  C     -2.51952000     -3.11175000     -3.65305000
  O     -3.07138000     -3.76201000     -4.71316000
  C      2.16041000      2.70877000      3.70197000
  O      2.49718000      3.21818000      4.80631000
  C      3.65600000      2.51195000     -2.67396000
  O      4.59305000      3.13670000     -3.48618000
  C      5.33459000      0.93158900      0.19027900
  O      6.58446000      1.36562000      0.08841930
