110
Energy = -12441.65394103 au
 Ni     -2.86696000      1.60768000     -2.18960000
 Ni      0.71171200      0.94173700     -1.24311000
 Ni     -3.58984000      1.51891000      0.32989900
 Ni      3.87656000     -2.25592000     -0.54501500
 Ni      2.72656000     -0.51893700     -2.29062000
 Ni      2.40746000      1.87926000      0.60273800
 Ni      0.03329220      0.79036300      1.22352000
 Ni      3.21479000     -2.40159000      1.79976000
 Ni     -0.94827500      0.09595550     -3.22274000
 Ni     -2.10214000     -2.83015000     -0.97539300
 Ni     -1.57711000     -0.05890000     -0.60299600
 Ni     -3.23023000     -1.04733000     -2.48721000
 Ni     -0.01272660     -4.18980000     -1.77259000
 Ni     -1.14934000     -2.00389000      3.42666000
 Ni     -0.37175300     -1.74811000      0.94010800
 Ni     -1.29466000     -2.47382000     -3.44345000
 Ni      2.20011000     -3.07145000     -2.54356000
 Ni     -0.50245000      2.66678000     -2.83487000
 Ni     -2.66550000     -2.87815000      1.57637000
 Ni     -1.22673000      2.54117000     -0.32043100
 Ni     -0.80112100     -4.37687000      0.75662300
 Ni      0.30761400     -1.59059000     -1.53260000
 Ni      1.44814000      1.12265000     -3.74668000
 Ni      1.10501000      3.57134000     -0.99701900
 Ni      0.76846400     -3.43173000      2.50254000
 Ni      1.23814000     -0.89245800      2.74920000
 Ni     -3.89878000     -1.15377000      0.01374600
 Ni     -1.90928000      2.34912000      2.25015000
 Ni      4.25646000      0.23321500     -0.28243700
 Ni      1.72645000     -3.44819000      0.05032090
 Ni      3.59365000      0.12658100      2.09802000
 Ni      1.60506000      1.69435000      3.13371000
 Ni      0.98823200     -1.52479000     -4.05071000
 Ni      1.92776000     -0.73647400      0.29725400
 Ni      0.41026900      3.41291000      1.55747000
 Ni     -0.69653800      0.69076400      3.77523000
 Ni      3.08134000      2.03012000     -1.94405000
 Ni     -2.26535000     -0.17567000      1.90139000
  C      4.22053000     -3.57398000      0.73185000
  O      5.22246000     -4.35268000      0.88797800
  C     -0.76311700     -1.22078000     -4.74837000
  O     -1.12765000     -1.29234000     -5.98930000
  C      3.35172000      0.92491300      4.08285000
  O      4.21623000      1.30370000      5.02669000
  C      3.95252000      2.85714000      1.35061000
  O      4.95070000      3.56009000      1.51280000
  C      1.21989000     -4.78554000      1.29313000
  O      1.72358000     -5.92429000      1.63817000
  C      1.25742000      5.05949000      0.43028800
  O      1.61537000      6.34402000      0.46307400
  C      0.13790200      1.52020000     -5.19668000
  O      0.20653400      1.95194000     -6.41869000
  C      3.07689000     -2.01730000     -4.21342000
  O      3.27016000     -2.18812000     -5.48743000
  C      3.97050000     -1.95900000     -2.84069000
  O      5.25117000     -2.19985000     -2.95107000
  C     -3.62352000     -3.34933000      0.04026920
  O     -4.51656000     -4.26416000     -0.15793200
  C     -1.22398000      4.42864000      2.30704000
  O     -1.47647000      5.56974000      2.94347000
  C      0.80610100     -0.26265900      4.96065000
  O      1.15335000     -0.42779600      6.22721000
  C      0.86277500      4.17935000     -3.06645000
  O      1.07348000      5.23857000     -3.84827000
  C      0.17894200     -3.72006000     -3.68091000
  O      0.12593100     -4.69858000     -4.52948000
  C      1.81888000      3.70913000      3.14838000
  O      2.25501000      4.67604000      3.96155000
  C     -5.10269000      0.49903400      1.17367000
  O     -6.38050000      0.76545500      1.42646000
  C     -0.51512400      2.53180000      4.56740000
  O     -0.64093200      2.98430000      5.79214000
  C     -4.14706000     -1.74137000      2.49526000
  O     -5.21421000     -2.14675000      3.18701000
  C     -1.79536000     -4.33841000      2.35963000
  O     -2.33594000     -5.33357000      2.97470000
  C     -3.22099000      1.57759000      3.50730000
  O     -4.11205000      1.93408000      4.43128000
  C      3.33817000      1.25798000     -3.64504000
  O      4.13981000      1.48618000     -4.63239000
  C      5.08888000     -0.55418900      1.20151000
  O      6.28729000     -0.56499700      1.69116000
  C      5.15177000      1.31210000     -2.09161000
  O      6.45692000      1.38749000     -1.91312000
  C     -4.53809000      2.54336000     -1.42682000
  O     -5.62981000      3.09203000     -1.94925000
  C      2.00902000     -4.64062000     -1.37315000
  O      2.74314000     -5.65009000     -1.69551000
  C     -5.01471000     -0.83211600     -1.53677000
  O     -6.25918000     -1.12471000     -1.85480000
  C      2.93244000     -2.08795000      4.00972000
  O      3.84162000     -2.78269000      4.62120000
  C     -2.29534000     -0.89522300      4.69306000
  O     -2.83299000     -1.17735000      5.89781000
  C     -1.22975000     -5.25318000     -0.83512500
  O     -1.51562000     -6.49394000     -1.00524000
  C     -1.54889000      4.57004000     -1.09500000
  O     -2.04113000      5.73670000     -1.20367000
  C     -3.53667000      3.41454000      1.15732000
  O     -4.45740000      4.34481000      1.41340000
  C     -3.24156000      0.32544400     -3.83349000
  O     -4.23213000      0.38760700     -5.05692000
  C     -2.22132000      2.94139000     -3.80245000
  O     -2.72450000      3.75568000     -4.73694000
  C      3.36182000      4.04706000     -1.46456000
  O      4.23461000      4.83979000     -2.04499000
  C      0.20908400     -3.15083000      4.50738000
  O      0.21664600     -4.10041000      5.43545000
  C     -3.02259000     -2.94779000     -2.92978000
  O     -3.75726000     -3.78056000     -3.59083000
