#B3LYP/6-31+G(d) OPT FREQ

110, Energy = -12004.83469497 au

0 1
 Ni     -2.49027000      3.35312000     -1.10252000
 Ni      0.62400900      1.41255000     -1.33413000
 Ni     -2.78447000      2.68061000      1.43071000
 Ni      2.42217000     -2.61006000     -2.49264000
 Ni      1.63992000     -0.23765800     -3.21912000
 Ni      2.75256000      1.17363000      0.12199500
 Ni      0.38451600      0.65979400      1.11257000
 Ni      2.16164000     -3.38096000      0.05950570
 Ni     -1.52075000      1.82125000     -2.88863000
 Ni     -3.14646000     -1.13800000     -1.20894000
 Ni     -1.71634000      0.99147000     -0.34199000
 Ni     -3.84138000      1.20645000     -1.82834000
 Ni     -2.08992000     -2.75045000     -2.83508000
 Ni     -1.22386000     -2.17971000      2.89921000
 Ni     -0.96175500     -1.38156000      0.34049200
 Ni     -2.79226000     -0.26735400     -3.59715000
 Ni      0.35147500     -2.27908000     -3.85190000
 Ni     -0.02616270      3.81258000     -2.07701000
 Ni     -3.35989000     -1.88951000      1.35388000
 Ni     -0.33728800      3.09934000      0.39873400
 Ni     -2.36944000     -3.44917000     -0.45429500
 Ni     -0.71928100     -0.62738100     -2.09369000
 Ni      0.91320400      2.20396000     -3.80863000
 Ni      2.00732000      3.55679000     -0.67298300
 Ni     -0.18496600     -3.83901000      1.09251000
 Ni      1.15929000     -1.74855000      1.87331000
 Ni     -4.08131000      0.57869200      0.64647400
 Ni     -0.64207500      2.30395000      2.94524000
 Ni      3.73005000     -0.55601900     -1.65412000
 Ni      0.02888520     -3.05868000     -1.45858000
 Ni      3.53597000     -1.26759000      0.89253900
 Ni      2.57258000      0.37922300      2.68973000
 Ni     -0.44222000      0.20462700     -4.59419000
 Ni      1.37977000     -0.96298800     -0.64882800
 Ni      1.75824000      2.72655000      1.93336000
 Ni      0.14162500     -0.09165030      3.72395000
 Ni      2.95040000      2.01029000     -2.30576000
 Ni     -1.94669000      0.24342900      2.11142000
  C      4.00052000      2.05176000      2.18899000
  O      5.17528000      2.57534000      2.68920000
  C     -3.67959000     -3.12761000     -1.90585000
  O     -4.66597000     -3.91234000     -2.19988000
  C     -2.73092000      2.86695000      3.46882000
  O     -3.37963000      3.62502000      4.35992000
  C      3.82806000      0.84924200     -3.85447000
  O      4.78991000      1.18842000     -4.68312000
  C     -2.14321000      1.26520000     -4.66206000
  O     -2.64543000      1.74877000     -5.75628000
  C      2.46763000      4.47492000      1.36787000
  O      3.07669000      5.56258000      1.88867000
  C      0.78237900      4.98562000     -0.88863700
  O      0.91810200      6.25609000     -1.06958000
  C      1.16114000      0.99877700     -5.29947000
  O      1.42601000      1.09046000     -6.55709000
  C     -0.75310400     -4.33550000     -2.85423000
  O     -0.91027900     -5.40419000     -3.54802000
  C     -0.44614300     -4.24030000      3.19313000
  O     -0.79654800     -5.40625000      3.87201000
  C      1.72698000     -4.77490000     -2.09956000
  O      2.44291000     -5.66548000     -2.85112000
  C      2.47866000     -3.21361000      2.79933000
  O      3.04781000     -4.02388000      3.64989000
  C      4.17222000     -3.04341000      0.11756100
  O      5.25203000     -3.88306000      0.19019200
  C     -1.13086000      0.95330700      5.13951000
  O     -1.35423000      1.10683000      6.44989000
  C      0.76521300     -1.81227000      4.71023000
  O      0.94157400     -2.23204000      5.89579000
  C     -2.36839000      4.93667000      0.16943300
  O     -3.17034000      5.95308000     -0.16889900
  C      4.23087000     -1.95090000     -2.92873000
  O      5.35340000     -2.35739000     -3.51285000
  C     -4.81252000      2.40033000      0.86425600
  O     -5.89100000      3.04557000      1.15646000
  C     -4.22001000      0.04312490      2.79371000
  O     -5.20347000      0.09974930      3.67181000
  C     -0.71766900      4.54497000      1.97682000
  O     -0.86257100      5.83995000      2.46750000
  C     -2.62069000     -1.71684000      4.52949000
  O     -3.21301000     -2.33848000      5.46611000
  C      2.62331000      0.58141500      4.70703000
  O      3.42653000      0.67860700      5.88022000
  C     -4.27225000      3.30401000     -1.98117000
  O     -5.35177000      3.52212000     -2.73508000
  C      1.84704000      3.73034000     -3.27652000
  O      2.25940000      4.55094000     -4.18868000
  C      2.09604000     -1.77797000     -4.59950000
  O      2.50687000     -2.17409000     -5.75218000
  C     -5.28001000     -0.94991800     -0.48913700
  O     -6.59838000     -0.93066800     -0.33238600
  C     -1.59968000      3.76561000     -3.22502000
  O     -1.92159000      4.70371000     -4.05672000
  C     -1.48441000     -1.77998000     -4.70223000
  O     -1.91439000     -2.27009000     -5.82008000
  C      3.84055000      3.21050000     -1.07194000
  O      4.87451000      4.02256000     -1.26496000
  C      1.34690000     -5.31385000      0.69694700
  O      1.73096000     -6.62678000      0.80374600
  C     -4.51280000     -0.57117700     -2.62165000
  O     -5.34711000     -0.84913400     -3.57486000
  C      5.07311000      0.42531300     -0.35171900
  O      6.41981000      0.53361100     -0.50604200
  C     -3.98355000     -3.73749000      1.87417000
  O     -5.18490000     -4.31799000      2.22381000
  C     -1.39991000     -5.19451000      0.16061400
  O     -1.99743000     -6.41646000      0.15480800
  C      4.64635000     -0.83615000      2.57512000
  O      5.74147000     -1.16060000      3.13379000
  C      0.94154300      2.94957000      4.03424000
  O      1.20375000      3.72469000      5.08331000

