110
Energy = -12324.68346250 au
 Ni     -0.21988900     -3.47877000     -2.04124000
 Ni     -1.47619000     -1.05939000      0.51941700
 Ni      2.20122000     -2.88555000     -1.52272000
 Ni     -2.85604000      3.25624000      1.25446000
 Ni     -3.45601000      0.71709600      0.65742800
 Ni     -0.80343400     -0.43654600      2.93243000
 Ni      0.94342000     -0.40312000      1.04628000
 Ni     -0.42127900      3.86243000      1.83143000
 Ni     -2.16458000     -1.68294000     -1.90573000
 Ni      0.19337100      0.85137500     -3.25447000
 Ni      0.28309700     -1.02858000     -1.36513000
 Ni     -0.39280000     -1.62282000     -3.85215000
 Ni     -1.71059000      2.63031000     -3.09496000
 Ni      3.28236000      2.11036000     -0.24539000
 Ni      0.82308300      1.42021000     -0.74639500
 Ni     -2.25105000      0.15652900     -3.75200000
 Ni     -3.50855000      2.57960000     -1.14398000
 Ni     -2.06305000     -3.54700000     -0.09129060
 Ni      2.59115000      1.53540000     -2.69460000
 Ni      0.39627400     -2.84829000      0.42757900
 Ni      0.73359100      3.31368000     -2.58600000
 Ni     -1.59308000      0.76446600     -1.27235000
 Ni     -3.94616000     -1.72463000      0.02478240
 Ni     -1.37790000     -2.93552000      2.32335000
 Ni      1.36097000      3.92302000     -0.15387900
 Ni      1.48575000      2.05427000      1.70816000
 Ni      2.00280000     -1.04088000     -3.30170000
 Ni      2.89443000     -2.23079000      0.97770900
 Ni     -2.67231000      1.39465000      3.03942000
 Ni     -1.09083000      3.31672000     -0.66187700
 Ni     -0.27523200      2.02809000      3.58453000
 Ni      1.65495000      0.17276300      3.48735000
 Ni     -4.04007000      0.14333800     -1.78775000
 Ni     -0.93546800      1.38827000      1.13320000
 Ni      1.09223000     -2.27229000      2.86310000
 Ni      3.43580000      0.22427000      1.58730000
 Ni     -3.29386000     -1.13801000      2.38818000
 Ni      2.72496000     -0.37327400     -0.85222700
  C      0.83452500     -4.41169000      2.19032000
  O      1.07813000     -5.59487000      2.69883000
  C     -2.11142000      4.12109000      2.80871000
  O     -2.71550000      5.15277000      3.29889000
  C     -1.07410000      1.72497000     -4.65466000
  O     -1.26159000      2.19863000     -5.84114000
  C     -3.33620000      4.36402000     -0.31605300
  O     -4.30235000      5.18363000     -0.55202300
  C      2.72689000     -2.14429000      3.95496000
  O      3.31021000     -2.77141000      4.94919000
  C      1.00072000     -0.46485400     -4.89906000
  O      1.30273000     -0.52618200     -6.14942000
  C     -5.01532000     -1.17821000      1.51162000
  O     -6.18392000     -1.56933000      1.88496000
  C     -1.07129000      4.38798000     -2.51290000
  O     -1.38520000      5.42065000     -3.21972000
  C     -1.97744000     -3.75747000     -2.97322000
  O     -2.42974000     -4.78724000     -3.70991000
  C     -1.82837000      1.72102000      4.73395000
  O     -2.26907000      2.15273000      5.87560000
  C     -0.51701200     -2.65950000      4.32804000
  O     -0.65074200     -3.32169000      5.49214000
  C      4.61877000      2.10177000      1.24350000
  O      5.80447000      2.61671000      1.48646000
  C      0.53638300      0.15046800      5.13902000
  O      0.79980800      0.17327200      6.42788000
  C      0.78470600      3.62272000      3.57552000
  O      1.01053000      4.44497000      4.53676000
  C     -2.88646000     -0.85050500      4.36907000
  O     -3.77565000     -1.14033000      5.31686000
  C     -0.94036100     -5.27184000      0.00015520
  O     -1.47723000     -6.45564000     -0.00053222
  C      4.20875000      2.41378000     -1.90562000
  O      5.35792000      3.08951000     -2.34755000
  C      1.37762000     -4.84408000     -1.13601000
  O      1.77726000     -6.07205000     -1.40925000
  C      0.96842500     -3.15679000     -3.74239000
  O      1.21523000     -3.96004000     -4.72281000
  C     -3.15389000     -3.90249000      2.31723000
  O     -3.64040000     -4.82455000      3.07005000
  C     -4.40516000      1.78335000      2.07309000
  O     -5.42830000      2.13675000      2.76936000
  C     -3.87980000     -3.60373000     -0.85710500
  O     -5.00737000     -4.39036000     -0.90466200
  C      4.02147000     -2.76282000     -2.36576000
  O      4.81542000     -3.62254000     -2.94759000
  C      3.86394000     -0.11756700     -3.57428000
  O      4.75221000     -0.14723100     -4.54077000
  C      4.91988000     -0.61866700     -0.64774900
  O      6.12244000     -0.77755200     -0.88240000
  C     -5.01860000      1.13461000     -0.46591900
  O     -6.29354000      1.31184000     -0.58198100
  C     -3.64956000      1.88111000     -3.15931000
  O     -4.53572000      2.39138000     -3.95463000
  C     -0.33165900      5.16164000      0.31592400
  O     -0.47229400      6.43936000      0.39760500
  C      2.03738000      4.52483000     -1.83929000
  O      2.52990000      5.79003000     -2.19915000
  C      1.75093000      2.62282000     -4.13455000
  O      2.22047000      3.25997000     -5.15034000
  C     -4.11587000     -1.58882000     -3.00962000
  O     -5.36365000     -1.73884000     -3.53083000
  C      4.74109000     -0.98678300      2.42065000
  O      5.88860000     -1.14838000      2.99726000
  C      2.55564000      4.15317000      1.46567000
  O      3.21076000      5.26311000      1.82879000
  C      3.12165000      1.49526000      3.75797000
  O      3.87593000      1.89538000      4.77591000
  C      3.87590000     -3.90121000      0.91398300
  O      4.80883000     -4.72085000      1.17086000
  C     -2.08162000     -1.42585000     -4.80857000
  O     -2.53724000     -1.72452000     -5.97314000
