#B3LYP/6-31+G(d) OPT FREQ

110, Energy = -12335.42293120 au

0 1
 Ni      0.86306100     -3.53245000     -2.26805000
 Ni     -1.19082000     -0.58988000     -1.22064000
 Ni      1.03419000     -4.34180000      0.31981700
 Ni     -0.95867700      3.96461000     -0.19488700
 Ni     -1.24658000      2.07448000     -2.00386000
 Ni     -3.21634000     -0.20498400      0.37214700
 Ni     -1.00144000     -1.28482000      1.25028000
 Ni     -0.78808100      3.08353000      2.39022000
 Ni      0.75265000     -1.14847000     -3.07827000
 Ni      3.15235000     -0.38760000     -0.13787600
 Ni      0.95466600     -1.76084000     -0.35628800
 Ni      2.86232000     -2.29968000     -2.02575000
 Ni      3.18354000      2.11162000     -0.81979400
 Ni      1.42846000     -0.59676800      3.92853000
 Ni      1.16488000      0.08688340      1.45947000
 Ni      3.01196000      0.37379900     -2.72620000
 Ni      0.86262700      3.41152000     -1.76123000
 Ni     -1.46944000     -2.42885000     -3.15307000
 Ni      3.37358000     -1.10505000      2.49858000
 Ni     -1.24410000     -3.26445000     -0.60894300
 Ni      3.41976000      1.56873000      1.75374000
 Ni      0.96529500      0.77160900     -1.01437000
 Ni     -1.44106000     -0.00664675     -3.84603000
 Ni     -3.45035000     -2.06179000     -1.37573000
 Ni      1.44046000      1.91429000      3.30730000
 Ni     -0.79708800      0.52998300      3.09675000
 Ni      3.11508000     -2.99874000      0.44428900
 Ni     -1.01414000     -3.94504000      1.80526000
 Ni     -3.19361000      2.55174000     -0.34942200
 Ni      1.20414000      2.68196000      0.84305600
 Ni     -2.93329000      1.65064000      2.19548000
 Ni     -3.03136000     -0.81703900      2.86692000
 Ni      0.79306500      1.56011000     -3.61312000
 Ni     -0.99272200      1.24298000      0.58920300
 Ni     -3.28996000     -2.65044000      0.90389900
 Ni     -0.79674900     -1.96625000      3.73483000
 Ni     -3.39724000      0.46518400     -2.11810000
 Ni      1.32530000     -2.59085000      2.27758000
  C      4.52442000     -1.23545000     -2.64452000
  O      5.54323000     -1.63987000     -3.41628000
  C     -5.15237000     -0.97327200      1.85195000
  O     -5.82491000     -0.67293100      2.89479000
  C     -1.00816000     -4.51065000     -3.14118000
  O     -1.12729000     -5.54432000     -3.97295000
  C     -1.24402000      3.63557000     -3.02058000
  O     -1.82608000      4.47060000     -3.88108000
  C     -1.20999000     -5.52463000      0.32841500
  O     -0.80922300     -6.80002000      0.35747100
  C     -4.66484000      2.34509000      1.33400000
  O     -5.68845000      3.04925000      1.82746000
  C      5.39705000     -0.43998300      3.37940000
  O      6.33932000     -1.01030000      4.04656000
  C     -2.80632000     -1.87138000      4.64938000
  O     -3.34951000     -2.06433000      5.84290000
  C      0.00847118      3.02888000      4.36513000
  O      0.03594490      3.89818000      5.39636000
  C     -2.18502000      4.45208000      1.72356000
  O     -2.51655000      5.62635000      2.28784000
  C     -4.91166000     -1.70828000      0.54213300
  O     -6.03476000     -2.14010000      0.02618570
  C      2.14744000     -4.21302000      1.77473000
  O      2.77887000     -5.05865000      2.52345000
  C     -5.08476000      1.03304000     -0.95371300
  O     -6.35613000      1.25368000     -1.25358000
  C      1.66979000      3.35005000     -3.78336000
  O      2.03324000      4.28690000     -4.67077000
  C      1.69341000     -2.62055000     -3.74291000
  O      2.00293000     -2.97451000     -4.94707000
  C      2.82984000      4.08301000     -0.75451400
  O      3.59436000      5.19374000     -0.89256600
  C     -0.60750300      1.31027000     -5.07333000
  O     -0.76024300      1.65302000     -6.37965000
  C     -2.98068000     -3.80048000     -1.01972000
  O     -3.43532000     -4.97477000     -1.29370000
  C      4.33498000      3.49930000      1.77739000
  O      5.48053000      3.82195000      2.24772000
  C     -3.01222000     -4.29480000      2.38886000
  O     -3.87133000     -5.21527000      2.79927000
  C      4.94188000      0.50113400      0.02927440
  O      6.26616000      0.35058500     -0.06903780
  C      0.00014326      0.08450770      5.16867000
  O     -0.18693300      0.34404700      6.49057000
  C      2.35541000     -4.25448000     -1.28132000
  O      2.95265000     -5.32564000     -1.71992000
  C     -3.59184000     -1.70524000     -3.24457000
  O     -4.59246000     -2.20360000     -4.08033000
  C     -1.11159000     -1.54553000     -4.63639000
  O     -1.26398000     -1.88999000     -5.86040000
  C      0.42489100      5.55400000     -1.03565000
  O      0.08066590      6.79767000     -1.18447000
  C      2.10315000      0.40676500     -4.77036000
  O      2.81402000      0.57421000     -5.91255000
  C      0.24063300     -3.85469000      4.06906000
  O     -0.08600380     -5.05992000      4.54383000
  C      1.39426000      4.23887000      2.06111000
  O      1.94101000      5.42205000      2.34516000
  C     -3.29559000      1.32231000     -3.96064000
  O     -4.19542000      1.62355000     -4.90343000
  C      2.07167000     -2.29041000      4.09768000
  O      2.42705000     -2.94468000      5.14272000
  C      5.05449000     -2.41389000      0.01191600
  O      6.00443000     -3.29227000      0.13655200
  C     -3.31843000      4.39067000     -1.45088000
  O     -4.29314000      5.23270000     -1.45472000
  C     -2.66430000      1.50975000      4.20637000
  O     -3.19901000      1.93059000      5.35620000
  C      3.09561000      1.08973000      4.27229000
  O      3.77918000      1.54399000      5.36488000
  C      4.35090000      1.78678000     -2.73086000
  O      5.44299000      2.25209000     -3.34501000

