110
Energy = -12768.60403204 au
 Ni      0.73454900     -3.57337000     -2.09495000
 Ni     -0.72821200     -0.17991200     -1.38013000
 Ni      0.35919100     -4.31433000      0.31415800
 Ni      0.15233500      4.24560000      0.13529700
 Ni     -0.05557940      2.37422000     -1.85884000
 Ni     -2.90855000      0.74078600     -0.21850300
 Ni     -1.20963000     -0.92940000      1.09354000
 Ni     -0.35023900      3.28636000      2.64086000
 Ni      1.43546000     -0.99093300     -2.60461000
 Ni      3.37215000     -0.99191900      0.65272600
 Ni      0.91179400     -1.78480000     -0.11910400
 Ni      3.09143000     -2.58413000     -1.32214000
 Ni      3.96169000      1.38194000      0.10690400
 Ni      0.67149200     -0.75544600      4.32220000
 Ni      1.09896000     -0.03795050      1.81110000
 Ni      3.89606000     -0.20653600     -2.00658000
 Ni      2.45429000      3.25674000     -1.11418000
 Ni     -0.89747000     -1.93659000     -3.43062000
 Ni      2.69936000     -1.66104000      3.16541000
 Ni     -1.43897000     -2.89979000     -0.87956100
 Ni      3.39120000      0.81297200      2.58511000
 Ni      1.61670000      0.71315400     -0.61675600
 Ni     -0.25405000      0.53698400     -3.89463000
 Ni     -3.06958000     -1.06036000     -2.19374000
 Ni      1.43838000      1.68968000      3.85351000
 Ni     -1.16008000      0.82458000      3.38022000
 Ni      2.58830000     -3.48322000      1.14749000
 Ni     -1.99878000     -3.57639000      1.55237000
 Ni     -2.26505000      3.25686000     -0.71054800
 Ni      2.13477000      2.79269000      1.53238000
 Ni     -2.78576000      2.50988000      1.83870000
 Ni     -3.46980000     -0.00687006      2.35417000
 Ni      2.09253000      1.47892000     -3.12075000
 Ni     -0.52550200      1.59058000      0.60480200
 Ni     -3.54917000     -1.78615000      0.38082000
 Ni     -1.77697000     -1.78065000      3.58851000
 Ni     -2.45393000      1.44955000     -2.71174000
 Ni      0.27857500     -2.88812000      2.50464000
  C     -4.87714000      0.81653700      1.35119000
  O     -6.18767000      1.04744000      1.44837000
  C     -4.21937000      1.91073000     -2.11800000
  O     -5.39413000      2.26954000     -2.60715000
  C      5.00566000     -0.37067000      2.42139000
  O      6.22851000     -0.43740200      2.92525000
  C     -1.65049000     -3.65331000      3.38649000
  O     -2.12650000     -4.54053000      4.22558000
  C      2.43554000     -0.05372980      4.62023000
  O      3.02148000     -0.08310110      5.77780000
  C     -4.91540000     -1.03934000     -0.99672900
  O     -6.21961000     -1.27035000     -1.25956000
  C      3.02232000      2.53444000      3.29667000
  O      3.82261000      3.25144000      4.02891000
  C     -3.96827000      3.53742000      0.45340200
  O     -4.92251000      4.48990000      0.52611500
  C     -1.45478000     -4.69954000      0.17371000
  O     -1.91891000     -5.88863000     -0.06101080
  C      1.17869000     -2.57927000      4.13919000
  O      1.24396000     -3.46519000      5.08772000
  C     -1.53034000      5.23515000     -0.04488760
  O     -1.81360000      6.52042000     -0.32384700
  C      3.58035000      3.35313000      0.39939500
  O      4.51076000      4.23140000      0.62937400
  C      2.33450000     -4.37367000     -0.80655000
  O      2.94542000     -5.48965000     -1.06396000
  C     -4.00135000     -3.69129000      1.00070000
  O     -5.07297000     -4.47094000      1.22950000
  C      1.65896000      0.29474500     -4.91713000
  O      2.06782000      0.22989500     -6.19367000
  C      2.18834000     -2.95273000     -3.60626000
  O      2.84247000     -3.41778000     -4.68755000
  C      5.46064000     -0.05980140     -0.62360800
  O      6.55438000      0.60457600     -0.63519100
  C     -0.07165580      2.45064000      4.73019000
  O     -0.21326500      2.95893000      6.01646000
  C     -2.11011000      3.70246000     -2.84062000
  O     -2.54052000      4.71919000     -3.59856000
  C     -2.04164000      4.18717000      2.85969000
  O     -2.51754000      5.23642000      3.57482000
  C     -0.59922500     -4.67504000     -2.88415000
  O     -0.57891900     -5.81822000     -3.51955000
  C     -3.35084000     -0.50799700     -4.00413000
  O     -4.29418000     -0.71884400     -4.91561000
  C     -2.98698000      1.48062000      3.44694000
  O     -3.60408000      1.90455000      4.51145000
  C     -0.54330000     -1.66020000     -5.28899000
  O     -0.77129600     -2.27480000     -6.41366000
  C     -2.97986000     -3.22213000     -2.32047000
  O     -3.67046000     -4.28153000     -2.80980000
  C      1.57416000      4.96626000     -1.18267000
  O      1.99625000      6.20063000     -1.58916000
  C      3.94836000     -3.10487000      2.50791000
  O      4.88455000     -3.89999000      3.12854000
  C      4.81804000     -1.67193000     -0.60093900
  O      5.72219000     -2.58308000     -0.41088800
  C      1.06481000      4.35101000      1.82091000
  O      1.56520000      5.43185000      2.34490000
  C     -1.13009000     -0.54217900      4.87120000
  O     -1.48935000     -0.52581100      6.12130000
  C      1.23227000     -4.51499000      1.97968000
  O      1.37320000     -5.67220000      2.55062000
  C     -3.78805000     -1.61950000      3.37523000
  O     -4.79801000     -1.91667000      4.26410000
  C      3.71383000      2.55370000     -2.76558000
  O      4.55800000      3.23183000     -3.60262000
  C      4.17577000     -0.79424200     -3.84676000
  O      5.29579000     -0.84524300     -4.48908000
  C      0.83694700      3.09777000     -3.82601000
  O      0.79387600      4.09661000     -4.70142000
  C     -1.58359000      1.55573000     -4.83040000
  O     -1.91751000      1.84459000     -6.08733000
