#B3LYP/6-31+G(d) OPT FREQ

110, Energy = -12315.61083181 au

0 1
 Ni      0.52038700     -3.47574000     -2.62829000
 Ni     -1.18350000     -0.27768300     -1.54550000
 Ni      0.88312400     -4.16311000     -0.08586140
 Ni     -0.79058900      4.14889000     -0.62109200
 Ni     -1.10889000      2.34534000     -2.36854000
 Ni     -3.02917000      0.29701600      0.20033600
 Ni     -0.85686100     -0.87476000      0.94740100
 Ni     -0.41374100      3.63667000      1.92604000
 Ni      0.65854400     -1.01481000     -3.46039000
 Ni      3.44662000     -0.23300400     -0.79440600
 Ni      0.97539200     -1.47094000     -0.78526900
 Ni      2.93818000     -1.97529000     -2.52829000
 Ni      3.38564000      2.36986000     -1.49491000
 Ni      1.79740000     -0.20376400      3.48215000
 Ni      1.37338000      0.41354000      0.94238400
 Ni      2.84772000      0.42672600     -3.34051000
 Ni      1.02243000      3.61656000     -2.27416000
 Ni     -1.54610000     -2.21137000     -3.38505000
 Ni      3.61972000     -0.75046800      1.76828000
 Ni     -1.15150000     -2.88048000     -0.82066300
 Ni      3.61564000      1.70427000      0.96245100
 Ni      1.05126000      1.01460000     -1.54564000
 Ni     -1.59350000      0.32328600     -4.05284000
 Ni     -3.51695000     -1.62815000     -1.54795000
 Ni      1.80974000      2.30906000      2.83333000
 Ni     -0.46129200      1.02394000      2.70863000
 Ni      3.25614000     -2.65364000      0.00549108
 Ni     -0.93357900     -3.38589000      1.79258000
 Ni     -3.02759000      2.80662000     -0.57907700
 Ni      1.45164000      3.07221000      0.13075500
 Ni     -2.72136000      2.25457000      1.97970000
 Ni     -2.77550000     -0.32001100      2.84407000
 Ni      0.73823600      1.54263000     -4.03616000
 Ni     -0.79376700      1.62448000      0.18216500
 Ni     -3.11999000     -2.16333000      0.96717700
 Ni     -0.56086400     -1.54132000      3.46819000
 Ni     -3.41016000      0.91371300     -2.24838000
 Ni      1.33752000     -2.14999000      1.71797000
  C      3.38980000     -0.59606600      4.44478000
  O      3.88759000     -0.66857000      5.60767000
  C     -2.99555000     -3.43755000     -2.55732000
  O     -3.72698000     -4.37727000     -3.24760000
  C      1.44691000      2.55922000      4.80442000
  O      1.95618000      3.39253000      5.63643000
  C     -4.60286000      0.11951400      1.80780000
  O     -5.91578000      0.18203100      2.07513000
  C      2.80285000     -4.52542000      0.23641600
  O      3.54580000     -5.66800000      0.27644800
  C     -0.19901000     -3.04277000     -4.27465000
  O     -0.19930800     -3.65798000     -5.37770000
  C      2.28411000     -3.05714000      3.15745000
  O      2.77765000     -4.02338000      3.83570000
  C     -0.57099200     -3.30295000      4.22834000
  O     -0.71114100     -3.91145000      5.38253000
  C      4.16561000      4.25413000     -0.65361800
  O      5.08436000      4.92003000     -1.25560000
  C      0.19089000     -4.94576000     -1.59405000
  O      0.09514920     -6.16566000     -1.92516000
  C     -4.92606000     -2.28532000     -0.11491600
  O     -6.09565000     -2.93784000     -0.07592070
  C     -2.97832000     -0.09581290      4.77623000
  O     -3.93293000     -0.17022200      5.62580000
  C     -4.25862000      3.94140000      1.97631000
  O     -5.03337000      4.46644000      2.84910000
  C     -0.52475600      5.87903000      1.76619000
  O     -0.73112600      6.78522000      2.64172000
  C      2.32434000      2.70297000     -3.60217000
  O      2.84911000      3.41803000     -4.54691000
  C      4.43957000     -2.04277000     -1.35440000
  O      5.67550000     -2.38661000     -1.50755000
  C     -2.88504000      4.84850000     -0.54183600
  O     -3.53376000      5.98839000     -0.75308100
  C      4.84373000      0.08057450     -2.99437000
  O      5.67068000      0.18438400     -4.01328000
  C     -3.05966000      2.47757000     -3.46599000
  O     -3.79970000      3.22787000     -4.33195000
  C     -0.78018000      1.43285000     -5.60710000
  O     -1.02143000      1.85873000     -6.84186000
  C     -2.38012000     -4.41116000      0.23590400
  O     -2.97095000     -5.60382000      0.08497440
  C      0.00460656     -0.11762900      4.97107000
  O     -0.06624790     -0.02797590      6.30864000
  C      0.96009600      4.89152000     -0.82179700
  O      1.30878000      6.14636000     -0.84256300
  C      2.46909000      4.00821000      1.68456000
  O      3.13530000      5.17842000      1.94295000
  C      4.82377000      0.93304000     -0.30227900
  O      6.11315000      0.94087200     -0.41128100
  C      2.61627000     -3.84131000     -3.26169000
  O      3.27378000     -4.60436000     -4.13870000
  C     -4.92095000      1.88307000     -0.60918200
  O     -6.09104000      2.52606000     -0.67783400
  C     -2.83165000     -1.19025000     -4.73239000
  O     -3.19576000     -1.40343000     -6.01629000
  C      1.94756000     -0.50897600     -4.72866000
  O      2.13792000     -0.82651300     -5.95313000
  C      0.24444700     -5.00383000      1.78061000
  O      0.13548500     -6.25716000      2.27853000
  C     -3.00915000     -2.95210000      2.87119000
  O     -3.89621000     -3.75805000      3.51397000
  C     -4.94023000     -0.43568000     -2.47419000
  O     -6.12011000     -0.57547300     -3.10515000
  C     -1.50107000      2.60205000      3.92856000
  O     -1.75602000      3.07570000      5.15241000
  C      4.94539000     -2.10907000      1.72686000
  O      6.07700000     -2.40545000      2.32681000
  C      4.22021000      1.47743000      2.85456000
  O      5.35928000      1.99495000      3.36875000
  C     -0.65342800      4.08412000     -3.04901000
  O     -1.02528000      4.95590000     -3.91403000

