110
Energy = -12259.65973427 au
 Ni     -2.13606000     -2.32828000     -3.14097000
 Ni     -0.52822200      0.79079200     -2.21024000
 Ni     -3.19527000     -2.67599000     -0.60355200
 Ni      3.28300000      2.76137000     -0.63738500
 Ni      1.82815000      1.91370000     -2.72718000
 Ni     -1.22781000      2.90924000     -0.90242400
 Ni     -1.39863000      0.58612500      0.20809900
 Ni      2.44398000      2.60765000      1.76668000
 Ni      0.11416500     -1.44566000     -3.80723000
 Ni      1.44037000     -2.84696000     -0.44452900
 Ni     -0.72208300     -1.52903000     -1.10900000
 Ni      0.00932444     -3.59865000     -2.50150000
 Ni      3.90440000     -1.70429000     -0.94468300
 Ni     -0.10077800     -0.87497100      3.44286000
 Ni      0.74895600     -0.68741700      0.85727200
 Ni      2.35619000     -2.50817000     -2.94550000
 Ni      4.01254000      0.43408700     -2.02116000
 Ni     -2.02062000     -0.12541200     -4.18101000
 Ni      0.59577800     -3.16419000      2.02472000
 Ni     -2.96185000     -0.27458800     -1.80095000
 Ni      2.95941000     -1.99366000      1.53814000
 Ni      1.61645000     -0.48023200     -1.56809000
 Ni      0.35494200      1.06184000     -4.66842000
 Ni     -2.66216000      2.02963000     -2.87733000
 Ni      2.26600000      0.17765100      2.99688000
 Ni      0.06280710      1.45462000      2.18559000
 Ni     -0.93497800     -3.92312000      0.06723340
 Ni     -3.85373000     -0.48320000      0.64129700
 Ni      1.10569000      3.97325000     -1.27700000
 Ni      3.19711000      0.33705600      0.37768200
 Ni      0.27146200      3.85596000      1.17955000
 Ni     -2.16125000      2.77006000      1.71908000
 Ni      2.44885000     -0.26035400     -3.99531000
 Ni      0.94670300      1.64557000     -0.24171800
 Ni     -3.69696000      1.83964000     -0.41998000
 Ni     -2.35591000      0.42278300      2.75847000
 Ni     -0.29580200      3.10028000     -3.37367000
 Ni     -1.58539000     -1.76035000      1.29071000
  C     -0.22249400     -2.58378000      4.92991000
  O     -0.31361500     -2.93324000      6.14950000
  C      4.16871000      2.30961000     -2.95136000
  O      5.26221000      2.79203000     -3.58853000
  C     -0.15442500      1.76891000      4.65741000
  O     -0.17143000      2.32882000      5.81742000
  C     -3.41693000      2.54435000      3.30530000
  O     -4.28500000      3.21085000      4.02240000
  C      4.31840000     -0.01606020      2.51106000
  O      5.49918000     -0.01632610      3.12934000
  C      3.99485000     -1.17891000     -3.31740000
  O      4.86527000     -1.43373000     -4.25045000
  C      5.18216000     -0.31853400     -0.78851400
  O      6.46908000     -0.38280700     -0.82625800
  C     -4.60113000     -0.15687300      2.37650000
  O     -5.78612000     -0.24565200      2.96360000
  C     -5.13967000     -2.20372000     -0.36643700
  O     -6.33077000     -2.76808000     -0.37266700
  C      2.02080000     -0.24735000      4.87277000
  O      2.62803000     -0.31841200      6.02804000
  C     -3.03476000     -4.07623000     -2.37737000
  O     -3.81373000     -4.77756000     -3.21037000
  C     -0.56373200     -4.86791000      2.67773000
  O     -0.51110100     -5.95909000      3.32682000
  C      2.86632000      4.57169000     -1.92611000
  O      3.32213000      5.78555000     -2.28347000
  C      2.05505000      4.33712000      1.25051000
  O      2.58825000      5.43536000      1.67195000
  C     -3.22574000      3.99176000      0.43279800
  O     -4.06891000      5.04229000      0.50459600
  C     -0.93023400      4.98892000     -2.58597000
  O     -1.15376000      5.80155000     -3.59969000
  C     -2.85043000     -4.45438000      0.82679400
  O     -3.40246000     -5.65975000      0.68172600
  C     -0.55472000      5.27010000      0.02776200
  O     -0.71749200      6.59275000     -0.05320590
  C      2.41963000     -2.90698000      3.33162000
  O      3.08855000     -3.72092000      4.16010000
  C      1.89864000     -4.55616000      0.66629600
  O      2.39828000     -5.79652000      0.68788900
  C     -1.42608000     -1.95879000     -4.96254000
  O     -1.83719000     -2.37979000     -6.10912000
  C     -4.35812000     -0.45004800     -3.22004000
  O     -5.56622000     -0.47234300     -3.74627000
  C     -3.00782000     -2.73522000      2.97911000
  O     -3.81880000     -3.53219000      3.58334000
  C     -5.55388000      1.31776000      0.07310870
  O     -6.78719000      1.69685000     -0.11199900
  C     -0.02083390     -5.34815000     -1.48076000
  O     -0.17206100     -6.58970000     -1.95384000
  C     -3.90409000      3.52108000     -2.09120000
  O     -4.76296000      3.97188000     -3.00454000
  C     -1.65603000      1.88812000     -4.76010000
  O     -2.06563000      2.26085000     -5.93180000
  C      2.84822000      2.53048000      3.66429000
  O      3.53559000      3.19705000      4.56312000
  C      4.52915000     -2.67299000      0.69830600
  O      5.56931000     -3.43684000      1.02940000
  C      4.64464000      2.55956000      0.78059200
  O      5.82796000      3.19640000      0.89111000
  C      1.35429000      2.63851000     -4.41136000
  O      1.96268000      3.27974000     -5.36228000
  C      0.79069500     -3.09667000     -4.35810000
  O      0.88469300     -3.96409000     -5.30444000
  C      1.09575000     -0.56287600     -5.26874000
  O      1.22086000     -0.84321000     -6.53142000
  C     -0.76114100      4.19948000      2.97434000
  O     -0.88833800      5.27923000      3.72848000
  C     -2.20470000     -0.05393420      4.60307000
  O     -2.90432000     -0.06718370      5.69789000
  C      3.32842000     -3.87256000     -1.76109000
  O      4.11960000     -4.76517000     -2.42812000
