110
Energy = -12670.60366876 au
 Ni     -0.45916900     -3.52451000     -1.89725000
 Ni     -1.69311000     -0.19268300     -0.72130700
 Ni      0.08837640     -4.27198000      0.61203900
 Ni     -0.51901600      4.28695000      0.24547500
 Ni     -1.43307000      2.38294000     -1.48547000
 Ni     -3.53841000      0.55776400      1.24638000
 Ni     -1.12600000     -0.84191200      1.74463000
 Ni      0.00302753      3.56549000      2.62736000
 Ni     -0.12605500     -0.98730000     -2.75511000
 Ni      2.87726000     -0.69282000     -0.44961100
 Ni      0.40183600     -1.68357000     -0.19504400
 Ni      2.05628000     -2.49147000     -2.19399000
 Ni      3.12940000      1.77106000     -1.27793000
 Ni      1.87820000     -0.48726000      3.98792000
 Ni      1.27586000      0.15483200      1.48905000
 Ni      2.34897000      0.00990176     -3.04053000
 Ni      1.00261000      3.37493000     -1.75128000
 Ni     -2.60546000     -2.12207000     -2.42580000
 Ni      3.51640000     -1.40916000      2.15276000
 Ni     -2.07569000     -2.88275000     -0.03627030
 Ni      3.77771000      1.12827000      1.27453000
 Ni      0.70379400      0.82910600     -0.98810500
 Ni     -2.25810000      0.49570400     -3.35138000
 Ni     -4.08951000     -1.28565000     -0.41155300
 Ni      2.15807000      2.00297000      3.16266000
 Ni     -0.36293300      1.12623000      3.85117000
 Ni      2.53253000     -3.17107000      0.34366400
 Ni     -1.45740000     -3.43218000      2.55415000
 Ni     -2.93986000      3.16684000      0.58164000
 Ni      1.63992000      2.83922000      0.69693200
 Ni     -2.35976000      2.50504000      2.95414000
 Ni     -2.80862000     -0.14659800      3.61855000
 Ni      0.12042500      1.54538000     -3.53639000
 Ni     -0.84614000      1.63665000      0.98962600
 Ni     -3.49725000     -1.85255000      2.08365000
 Ni     -0.47787400     -1.66875000      4.14959000
 Ni     -3.89381000      1.36040000     -1.28991000
 Ni      1.03806000     -2.51556000      2.21222000
  C     -3.28677000     -1.39569000     -4.13987000
  O     -4.12576000     -1.75499000     -5.10739000
  C      1.41269000      0.12155900     -4.78464000
  O      1.81086000      0.08165590     -6.07303000
  C     -4.77056000     -0.69617200      2.81697000
  O     -5.96612000     -0.98729500      3.19834000
  C     -2.20070000     -4.00710000     -2.31246000
  O     -2.72081000     -5.06461000     -2.82793000
  C     -1.65629000      5.33729000     -0.84194900
  O     -1.73721000      6.63162000     -0.93650400
  C     -2.39834000     -2.05195000      4.18707000
  O     -2.98262000     -2.53469000      5.24091000
  C     -1.84702000      3.27560000     -3.13464000
  O     -2.42732000      4.30911000     -3.69208000
  C      3.42357000      1.83290000     -3.36974000
  O      4.40371000      2.21071000     -4.19971000
  C     -4.23121000      3.53993000     -0.81438800
  O     -5.25176000      4.41695000     -0.86945700
  C      1.42433000     -4.52187000     -2.06282000
  O      1.80234000     -5.60474000     -2.79132000
  C     -0.12158000     -4.56151000      3.42365000
  O     -0.35137600     -5.57661000      4.23819000
  C     -1.77769000      4.22454000      2.32187000
  O     -2.19556000      5.31343000      2.89916000
  C      3.49178000      0.53322700      4.06117000
  O      4.28320000      0.67451800      5.19609000
  C     -4.21598000      1.16002000     -3.23058000
  O     -5.18610000      1.46912000     -4.12572000
  C      1.92063000     -4.62214000      1.36143000
  O      2.51721000     -5.68102000      1.78913000
  C     -1.21108000     -5.51721000     -0.19794100
  O     -1.24210000     -6.82479000     -0.10694100
  C     -0.11002300     -2.64597000     -4.05291000
  O     -0.13281300     -2.96892000     -5.33948000
  C     -3.97922000      2.20718000      2.08884000
  O     -5.14705000      2.43407000      2.61136000
  C      4.60733000     -0.07046730     -1.51021000
  O      5.86401000     -0.40605900     -1.77089000
  C     -3.05836000     -3.65217000      1.46466000
  O     -3.89289000     -4.64737000      1.43123000
  C      4.09694000      3.07591000     -0.26070800
  O      5.11330000      3.93037000     -0.44008600
  C      0.97643200      4.58969000      1.33997000
  O      1.61171000      5.68748000      1.61678000
  C     -1.23048000      0.77385900     -5.11260000
  O     -1.58946000      1.11789000     -6.35356000
  C     -2.14103000      1.45229000      4.57099000
  O     -2.56736000      1.84449000      5.73712000
  C      3.57821000      3.21164000      2.42083000
  O      4.37657000      4.02903000      3.14072000
  C      4.05082000     -3.08079000     -1.01592000
  O      5.12933000     -3.84506000     -1.20694000
  C     -5.01636000      0.33787100     -0.15928300
  O     -6.30096000      0.51354700     -0.09434960
  C      0.31739400     -0.15063100      5.08066000
  O      0.34781700     -0.02012310      6.37317000
  C      0.82031900      3.31188000     -3.94071000
  O      1.04446000      4.06153000     -5.03192000
  C      3.23793000     -1.87456000     -3.72616000
  O      4.07562000     -2.34359000     -4.65017000
  C      1.67636000     -2.38300000      4.01490000
  O      2.13389000     -3.27205000      4.84099000
  C      4.61702000     -2.96319000      2.31089000
  O      5.72883000     -3.25570000      2.89310000
  C     -4.58074000     -2.91675000     -1.27067000
  O     -5.77803000     -3.44063000     -1.56408000
  C      1.88287000      5.01403000     -1.29171000
  O      2.35466000      6.02928000     -1.93754000
  C      0.65162700      2.73494000      4.16766000
  O      0.71926900      3.33318000      5.32057000
  C      5.41686000      0.20573900      1.58132000
  O      6.66155000      0.49769700      1.87992000
