110
Energy = -11984.71793704 au
 Ni     -0.58344500      4.09959000     -1.45677000
 Ni      1.15100000      0.77924200     -1.48335000
 Ni     -1.09546000      3.85650000      1.04307000
 Ni      0.56221100     -3.71002000     -2.10305000
 Ni      1.16132000     -1.36038000     -3.11006000
 Ni      2.88836000     -0.43323000      0.12350600
 Ni      0.62784900      0.51416400      1.02494000
 Ni      0.13265300     -3.99769000      0.47255500
 Ni     -0.50200700      1.96828000     -3.09160000
 Ni     -3.32580000      0.59724300     -1.15726000
 Ni     -1.06429000      1.70441000     -0.52225800
 Ni     -2.86117000      2.83673000     -2.03491000
 Ni     -3.23470000     -1.53700000     -2.78317000
 Ni     -2.19113000     -0.92738000      3.06001000
 Ni     -1.59219000     -0.63950700      0.43197300
 Ni     -2.78434000      0.66935300     -3.66379000
 Ni     -1.13118000     -2.44267000     -3.72109000
 Ni      1.70253000      3.12856000     -2.54296000
 Ni     -3.92141000      0.25903300      1.46527000
 Ni      1.17286000      2.89246000      0.06875170
 Ni     -3.80840000     -1.81452000     -0.14033100
 Ni     -1.07665000     -0.37946900     -2.07167000
 Ni      1.71663000      1.13535000     -3.99742000
 Ni      3.42965000      1.99083000     -0.92296800
 Ni     -2.05271000     -3.05105000      1.47541000
 Ni      0.11178800     -1.84426000      2.01183000
 Ni     -3.31387000      2.66121000      0.41506600
 Ni      0.63731600      2.66127000      2.63731000
 Ni      2.87631000     -2.54533000     -1.47727000
 Ni     -1.53947000     -2.77829000     -1.15437000
 Ni      2.41548000     -2.79770000      1.15185000
 Ni      2.46970000     -0.71277400      2.68175000
 Ni     -0.57056700     -0.29182900     -4.56978000
 Ni      0.61894300     -1.56945000     -0.52771200
 Ni      2.95723000      1.73982000      1.68234000
 Ni      0.13045100      0.26000000      3.70112000
 Ni      3.37421000     -0.05762390     -2.45183000
 Ni     -1.60534000      1.46142000      1.98955000
  C     -4.04867000     -2.75913000      1.85935000
  O     -5.07561000     -3.53831000      2.32029000
  C     -1.67694000     -5.03620000      0.54062600
  O     -2.28970000     -6.21584000      0.55955800
  C      3.23248000     -0.09313570      4.24225000
  O      3.98884000     -0.19136000      5.28617000
  C     -4.51756000      2.69981000     -1.10345000
  O     -5.59827000      3.40429000     -1.13522000
  C      4.45193000     -1.34810000      1.72070000
  O      5.65801000     -1.64071000      2.09782000
  C      4.10148000     -1.90091000     -3.09345000
  O      5.12092000     -2.23787000     -3.90789000
  C     -1.78751000      4.02822000     -3.61644000
  O     -2.52455000      4.94908000     -4.23556000
  C     -5.26733000      0.24558700      2.92595000
  O     -6.54543000      0.35303800      3.09147000
  C      0.70770500     -1.90681000      4.68585000
  O      0.83045000     -2.37954000      5.86830000
  C     -0.55732800     -4.14227000      2.99062000
  O     -0.71426100     -5.18773000      3.79163000
  C      3.49335000      2.09088000     -2.91310000
  O      4.44488000      2.63726000     -3.60803000
  C     -1.76051000      1.69788000     -5.29092000
  O     -1.65744000      1.67404000     -6.62534000
  C      1.21867000      4.72478000      1.37808000
  O      1.60590000      5.96538000      1.58463000
  C      2.35724000      2.93517000      3.61872000
  O      2.91151000      3.73364000      4.49123000
  C     -1.70383000      5.07721000     -0.32040700
  O     -2.23862000      6.44039000     -0.17007400
  C     -0.88284700      3.89179000      3.38793000
  O     -1.06368000      4.86766000      4.27949000
  C      4.78680000      1.82124000      1.94170000
  O      5.84485000      2.30959000      2.43039000
  C     -3.43961000      3.48602000      2.31953000
  O     -4.44117000      4.21396000      2.74495000
  C     -4.96841000      1.42637000     -2.74287000
  O     -5.43206000      1.41798000     -4.00057000
  C     -1.04719000     -4.55574000     -2.43653000
  O     -1.44882000     -5.70493000     -3.11964000
  C     -2.50152000     -2.05919000      4.52107000
  O     -3.12830000     -2.43611000      5.51914000
  C      0.88444400      2.85703000     -4.24824000
  O      0.92610900      3.64749000     -5.27873000
  C      5.04360000      0.42174500     -0.84508900
  O      6.37022000      0.41104300     -1.02964000
  C      0.25994600      1.26374000      5.27139000
  O      0.30555100      1.46361000      6.53173000
  C     -5.28713000     -0.31452400     -0.67779800
  O     -6.57475000     -0.40581900     -1.06573000
  C     -3.81741000     -3.52682000     -1.37004000
  O     -4.91027000     -4.23203000     -1.80033000
  C      1.53711000     -5.25458000      0.27085500
  O      1.71638000     -6.54596000      0.30813800
  C      2.33618000     -4.26440000     -2.80996000
  O      2.82419000     -5.20271000     -3.59737000
  C      2.26836000     -0.35589000     -5.21959000
  O      2.78410000     -0.40314800     -6.44552000
  C      2.61753000     -3.53493000      2.92035000
  O      3.26303000     -4.46254000      3.53588000
  C      1.24186000      4.96946000     -1.68335000
  O      1.44872000      6.17253000     -2.21485000
  C     -2.68384000      1.33691000      4.39920000
  O     -3.36489000      1.66975000      5.44275000
  C      0.32490300     -2.26031000     -4.75464000
  O      0.59734200     -2.84896000     -5.88579000
  C      4.19543000     -3.28686000     -0.22532600
  O      5.14698000     -4.23501000     -0.38025300
  C      3.71613000      3.76719000     -0.21250500
  O      4.60821000      4.69224000     -0.36234700
  C     -2.69222000     -1.81913000     -4.49090000
  O     -3.50534000     -2.35650000     -5.35393000
