110
Energy = -12518.36813579 au
 Ni      0.91993400     -3.52912000     -2.19151000
 Ni     -1.08930000     -0.60418600     -1.14275000
 Ni      1.56801000     -4.13372000      0.14320900
 Ni     -1.04943000      3.89510000     -0.17997500
 Ni     -1.41633000      1.90498000     -1.93773000
 Ni     -2.83129000     -0.13831700      0.83295900
 Ni     -0.43579800     -1.12328000      1.31899000
 Ni     -0.41078200      3.37154000      2.28690000
 Ni      0.61347400     -1.03914000     -3.30155000
 Ni      3.65056000     -0.02897760     -0.84401900
 Ni      1.27057000     -1.53822000     -0.61114100
 Ni      3.04518000     -1.98291000     -2.50380000
 Ni      3.10873000      2.58026000     -1.47966000
 Ni      2.36910000     -0.09532320      3.49856000
 Ni      1.65466000      0.38494800      1.05862000
 Ni      2.75165000      0.57733000     -3.33483000
 Ni      0.68933000      3.39376000     -2.18978000
 Ni     -1.43024000     -2.57468000     -2.93244000
 Ni      4.16315000     -0.47524300      1.58108000
 Ni     -0.79801500     -3.20240000     -0.29577400
 Ni      3.74871000      1.91758000      0.98298700
 Ni      0.99183300      0.91453300     -1.37471000
 Ni     -1.79698000     -0.13996600     -3.65956000
 Ni     -3.22708000     -2.10137000     -0.86309900
 Ni      2.04265000      2.39197000      2.72863000
 Ni     -0.09048080      0.81598800      2.97872000
 Ni      3.64567000     -2.60169000      0.00369587
 Ni     -0.24177900     -3.60789000      2.18068000
 Ni     -3.12838000      2.33920000      0.03071850
 Ni      1.46985000      2.99906000      0.34170900
 Ni     -2.49228000      1.84860000      2.47320000
 Ni     -2.22625000     -0.77925300      3.36407000
 Ni      0.28346600      1.44504000     -3.94236000
 Ni     -0.70782800      1.37351000      0.54042500
 Ni     -2.58323000     -2.61352000      1.61758000
 Ni      0.23082000     -1.63500000      3.82336000
 Ni     -3.52057000      0.40206700     -1.72246000
 Ni      2.04719000     -2.18475000      1.87134000
  C      3.09565000     -3.90955000      1.21166000
  O      3.75371000     -4.88012000      1.70333000
  C     -0.97168300     -1.35324000      5.36126000
  O     -1.18043000     -1.87317000      6.54957000
  C     -4.46952000     -1.53519000     -2.27230000
  O     -5.68805000     -1.94182000     -2.68367000
  C     -3.13410000      4.24575000      0.60265200
  O     -4.03885000      5.22388000      0.68641200
  C     -0.28807600     -0.13037500     -4.80982000
  O     -0.29282400     -0.35213200     -6.09173000
  C     -3.57610000      0.40821900     -4.06283000
  O     -4.36521000      0.50200800     -5.12744000
  C      3.39065000      3.64370000      0.28850200
  O      4.07864000      4.71587000      0.51835500
  C     -1.10574000      4.70595000     -2.00651000
  O     -1.48111000      5.92948000     -2.44351000
  C      2.71975000     -3.97540000     -1.67232000
  O      3.39620000     -4.96764000     -2.16452000
  C      5.05381000     -2.08313000      2.04983000
  O      6.17154000     -2.41342000      2.69092000
  C     -3.98521000     -1.34401000      3.75633000
  O     -4.73572000     -1.53132000      4.79606000
  C      1.00830000     -3.79345000      3.66234000
  O      1.23817000     -4.84947000      4.49216000
  C      2.07853000      1.89255000     -4.57944000
  O      2.56824000      2.32765000     -5.79273000
  C     -2.50302000     -2.79726000     -4.46694000
  O     -3.05167000     -3.62505000     -5.30157000
  C     -2.30046000     -4.12529000      2.87633000
  O     -2.99994000     -5.11026000      3.43834000
  C      3.53370000     -1.02376000     -4.18193000
  O      4.54157000     -1.20756000     -5.09588000
  C      3.73516000      1.36215000      3.10492000
  O      4.63808000      1.77143000      3.93683000
  C     -0.02927370     -5.08329000      0.69011400
  O     -0.20409700     -6.30611000      0.83805600
  C      5.05020000      0.75027500      0.38129600
  O      6.28968000      1.07202000      0.30251000
  C      2.38569000      4.48126000     -2.33323000
  O      2.80626000      5.52704000     -3.05637000
  C      0.44117200      5.08623000      0.64126500
  O      0.71726900      6.40309000      0.77591700
  C     -4.64857000     -1.84750000      0.95796800
  O     -5.89732000     -2.14822000      1.30885000
  C      4.62363000     -1.65022000     -1.30896000
  O      5.87432000     -1.84702000     -1.50922000
  C     -3.05600000     -4.01966000     -0.53763500
  O     -3.75980000     -5.15148000     -0.73283300
  C     -0.57083300     -4.75281000     -2.26226000
  O     -0.68550200     -6.02304000     -2.72736000
  C      4.55634000      1.64724000     -2.57955000
  O      5.67217000      2.22702000     -3.11961000
  C      1.58687000      4.27876000      3.03236000
  O      1.97192000      5.13587000      3.98544000
  C     -1.92521000      1.44159000      4.44172000
  O     -2.25196000      1.86921000      5.67733000
  C      1.08923000     -2.73255000     -4.07057000
  O      1.31374000     -3.27659000     -5.18844000
  C     -4.40005000      1.70725000      2.22433000
  O     -5.45282000      2.09343000      2.91648000
  C     -4.96014000      1.06166000     -0.42238400
  O     -6.28954000      1.25882000     -0.47087000
  C     -0.94132700      2.83957000     -4.29126000
  O     -1.31368000      3.58602000     -5.32780000
  C      1.15654000      1.21849000      4.82780000
  O      1.14481000      1.61804000      6.10925000
  C     -1.90886000      4.21128000      3.13321000
  O     -2.17358000      5.23015000      3.92972000
  C     -3.61107000      2.76666000     -2.26737000
  O     -4.41088000      3.52429000     -2.99897000
  C      2.72972000     -1.76515000      4.37117000
  O      3.29605000     -2.19886000      5.50401000
