110
Energy = -12338.34316991 au
 Ni     -0.48668800     -3.20654000     -2.84152000
 Ni      0.80668000     -1.75182000      0.29068900
 Ni     -0.14873200     -0.95838400     -4.18087000
 Ni     -0.28507600      0.53106000      4.13666000
 Ni      0.06850640     -1.77311000      2.82692000
 Ni      2.90614000     -0.32451300      0.91166400
 Ni      1.24223000      0.47660600     -0.94877500
 Ni      0.17544700      2.84438000      2.81978000
 Ni     -1.26753000     -3.14546000     -0.34736000
 Ni     -3.25754000     -0.21111500     -1.06112000
 Ni     -0.79997400     -0.96465700     -1.58216000
 Ni     -2.92355000     -2.39769000     -2.18037000
 Ni     -3.92307000     -0.26731100      1.67007000
 Ni     -0.78023700      3.58368000     -1.59436000
 Ni     -1.12434000      1.28117000     -0.32176600
 Ni     -3.63045000     -2.41570000      0.44855700
 Ni     -2.35311000     -0.99736000      3.41901000
 Ni      1.16829000     -4.01602000     -1.07804000
 Ni     -2.77679000      2.16780000     -2.18519000
 Ni      1.72806000     -1.89983000     -2.31600000
 Ni     -3.48575000      2.14863000      0.27630000
 Ni     -1.56282000     -0.94284800      0.91447300
 Ni      0.39596500     -4.12127000      1.55259000
 Ni      3.25759000     -2.61121000     -0.37644300
 Ni     -1.44653000      3.65052000      0.88462000
 Ni      0.97917300      2.85833000      0.31789700
 Ni     -2.54846000     -0.17597100     -3.50340000
 Ni      2.01103000      0.44674400     -3.48111000
 Ni      2.15999000     -0.34541100      3.43948000
 Ni     -1.85284000      1.30228000      2.19369000
 Ni      2.61944000      1.95683000      2.15521000
 Ni      3.37076000      2.00301000     -0.36015600
 Ni     -2.09619000     -3.13201000      2.20567000
 Ni      0.49473000      0.49195900      1.54999000
 Ni      3.72209000     -0.41269800     -1.61042000
 Ni      1.77804000      2.75442000     -2.23923000
 Ni      2.44848000     -2.58823000      2.17389000
 Ni     -0.44894300      1.21654000     -2.94334000
  C      1.34954000      0.10853900      5.30093000
  O      1.63935000      0.03514220      6.61292000
  C     -3.96384000      1.63392000     -3.68149000
  O     -4.99205000      2.10579000     -4.37256000
  C     -0.59067800     -5.24256000     -0.87377500
  O     -0.85819500     -6.48997000     -1.28836000
  C     -3.25802000      3.76791000      1.87820000
  O     -3.98966000      4.70136000      2.48612000
  C     -1.92656000      0.04250860      5.34449000
  O     -2.50241000      0.08091780      6.53357000
  C      2.51109000      4.27230000      0.49443800
  O      2.90996000      5.50135000      0.63928300
  C      1.24073000      1.74266000     -4.68151000
  O      1.41526000      2.20336000     -5.92576000
  C      1.72518000     -1.33052000     -4.95715000
  O      2.06388000     -1.62562000     -6.22408000
  C      4.39420000      2.42017000      1.54058000
  O      5.51783000      2.99520000      1.99966000
  C      4.02887000      0.54935200     -3.52718000
  O      4.94177000      0.56901400     -4.51211000
  C     -0.45208500      5.27464000     -0.77400500
  O     -0.58767000      6.56014000     -1.02652000
  C      5.11385000      0.02353750     -0.19863400
  O      6.44074000     -0.09537600     -0.17054000
  C     -5.45287000     -1.11603000      0.24551500
  O     -6.57521000     -1.83715000      0.27388800
  C     -3.76262000     -2.15799000      2.78776000
  O     -4.68576000     -2.65420000      3.56045000
  C      4.45958000     -2.47565000      1.66299000
  O      5.58802000     -3.12978000      1.94000000
  C      4.01193000      0.08207900      3.29712000
  O      5.03557000      0.02876570      4.14757000
  C     -5.17110000      1.36303000     -0.40912600
  O     -6.46184000      1.60350000     -0.46267600
  C     -1.28700000      2.75211000      4.24419000
  O     -1.62241000      3.33429000      5.40487000
  C     -0.11655400      4.89986000      2.09798000
  O     -0.16465200      6.06497000      2.74034000
  C      3.94829000     -2.21694000     -2.08267000
  O      4.87866000     -2.79920000     -2.75718000
  C     -2.41815000     -4.96644000      1.08496000
  O     -2.94874000     -5.95388000      1.76380000
  C      1.82813000      4.50906000     -2.90438000
  O      2.36794000      5.41545000     -3.62532000
  C     -1.49539000     -0.03243550     -4.97727000
  O     -1.85660000      0.12865800     -6.18433000
  C     -3.08955000      3.81449000     -1.06336000
  O     -3.90188000      4.82441000     -1.30776000
  C      1.50974000     -5.53486000      2.14987000
  O      1.46013000     -6.64887000      2.78038000
  C     -3.68335000     -4.14047000     -1.06734000
  O     -4.41990000     -5.14971000     -1.52161000
  C      2.99565000     -4.77157000     -0.45711300
  O      3.70489000     -5.89768000     -0.46283400
  C     -4.26750000      1.25841000      2.88298000
  O     -5.29646000      1.51717000      3.67878000
  C      2.05985000      2.88593000      3.83681000
  O      2.64808000      3.63849000      4.78928000
  C      2.12887000     -2.60890000      4.24780000
  O      2.78211000     -3.40327000      5.10169000
  C      4.29113000      2.79085000     -1.81547000
  O      5.40199000      3.41915000     -2.10644000
  C     -4.06948000     -1.11524000     -2.95424000
  O     -5.19545000     -1.34497000     -3.53222000
  C     -0.81658700     -2.98843000      4.26535000
  O     -0.74196800     -3.68687000      5.39177000
  C     -1.27887000      3.42440000     -3.67214000
  O     -1.54001000      4.25119000     -4.69283000
  C      1.31619000     -3.75355000     -2.98349000
  O      1.85682000     -4.52835000     -3.86447000
  C     -1.86727000     -2.86641000     -4.31686000
  O     -2.23515000     -3.74767000     -5.29221000
