#B3LYP/6-31+G(d) OPT FREQ

110, Energy = -12691.16175412 au

0 1
 Ni     -3.02538000      3.50278000      0.45787800
 Ni      0.07685670      1.94327000     -0.67209700
 Ni     -3.12293000      1.97530000      2.63485000
 Ni      2.05469000     -1.67218000     -2.98185000
 Ni      1.21973000      0.88171400     -2.99865000
 Ni      2.51457000      1.48823000      0.59067500
 Ni      0.10080700      0.54195400      1.56229000
 Ni      2.13732000     -2.99736000     -0.68425400
 Ni     -2.45390000      2.64779000     -2.10087000
 Ni     -3.69203000     -1.02738000     -0.90525500
 Ni     -2.12555000      1.04916000      0.32897400
 Ni     -4.39612000      1.38948000     -0.85068800
 Ni     -2.47428000     -1.82660000     -3.14534000
 Ni     -1.20449000     -2.82332000      2.63261000
 Ni     -1.18534000     -1.37487000      0.32880300
 Ni     -3.46968000      0.51669200     -3.16941000
 Ni     -0.19939500     -0.92294800     -4.16848000
 Ni     -0.99311500      4.42785000     -0.59297900
 Ni     -3.58797000     -2.19450000      1.35020000
 Ni     -0.82112600      3.01456000      1.70935000
 Ni     -2.51748000     -3.34700000     -0.92616900
 Ni     -1.20587000      0.02597840     -1.87168000
 Ni      0.05994670      3.47923000     -2.79141000
 Ni      1.32477000      3.97972000      0.40380400
 Ni     -0.13473300     -3.89522000      0.35940000
 Ni      1.18939000     -1.98736000      1.62359000
 Ni     -4.35588000      0.27776300      1.36255000
 Ni     -0.92271300      1.65170000      3.78849000
 Ni      3.39881000      0.40258400     -1.64483000
 Ni     -0.17603900     -2.50437000     -1.95674000
 Ni      3.48420000     -0.98656400      0.64493000
 Ni      2.40590000      0.04440720      2.87474000
 Ni     -1.16834000      1.39624000     -4.14722000
 Ni      1.09397000     -0.50650900     -0.67381800
 Ni      1.41984000      2.59102000      2.76156000
 Ni      0.23120900     -0.92331300      3.83503000
 Ni      2.32878000      2.88624000     -1.65976000
 Ni     -2.11845000     -0.43474300      2.69562000
  C     -1.30079000      0.36101200      5.14197000
  O     -1.67937000      0.44697600      6.43504000
  C     -4.21605000     -3.06387000     -0.21697400
  O     -5.18280000     -3.92244000     -0.31780200
  C      3.91046000     -2.84273000      1.02631000
  O      4.99461000     -3.53069000      1.36028000
  C     -4.66212000      2.33062000      1.05770000
  O     -5.80822000      2.91401000      1.25780000
  C     -1.50576000     -5.02300000     -0.51476500
  O     -1.76179000     -6.36348000     -0.56447000
  C      3.23291000     -1.01242000     -4.27815000
  O      3.96071000     -1.41065000     -5.27032000
  C      4.83735000     -0.77283500     -0.96855600
  O      6.15431000     -0.96847100     -1.19577000
  C      0.51977100      0.71767300     -4.82238000
  O      1.03274000      1.04836000     -5.99460000
  C     -1.46076000      4.72797000      1.25584000
  O     -1.58900000      5.82937000      1.93937000
  C      0.91930600     -4.16166000     -2.54030000
  O      0.88672900     -5.25536000     -3.27310000
  C      0.24931900      3.20438000      4.22856000
  O      0.35499800      4.08221000      5.28489000
  C     -5.21467000     -1.02056000      0.22343600
  O     -6.52102000     -1.02295000      0.11591600
  C      0.58895900      4.89788000     -1.50095000
  O      0.74376500      6.15922000     -1.84148000
  C      0.33437900     -2.61864000     -4.91518000
  O      0.32788400     -3.02545000     -6.15478000
  C     -3.21938000     -3.19964000      3.00075000
  O     -3.94304000     -4.17468000      3.62538000
  C      3.25174000      2.25136000      3.18985000
  O      4.13506000      2.86795000      3.99323000
  C     -2.31792000     -3.75540000     -3.20553000
  O     -2.81920000     -4.63520000     -4.10054000
  C      2.08948000      4.69819000      2.03344000
  O      2.51132000      5.87781000      2.47869000
  C      1.71857000      3.39947000     -3.83684000
  O      2.20993000      4.25634000     -4.76561000
  C     -2.50131000      3.38806000      4.04074000
  O     -3.38434000      3.95277000      4.85966000
  C     -2.37124000     -0.13580600     -4.65609000
  O     -2.90194000     -0.22228600     -5.84100000
  C      1.92648000     -2.62995000      3.49762000
  O      2.51601000     -3.61493000      4.13931000
  C     -2.74242000      4.32495000     -1.26285000
  O     -3.48539000      5.30266000     -1.69517000
  C     -4.28477000      2.12351000     -2.59453000
  O     -5.25278000      2.72701000     -3.21711000
  C     -4.28744000     -1.12511000     -2.71379000
  O     -5.47318000     -1.51305000     -3.08175000
  C      1.70936000     -0.00880155      4.89683000
  O      2.22340000     -0.05720540      6.13582000
  C     -3.92940000     -0.05196480      3.14407000
  O     -4.69537000     -0.30717400      4.15630000
  C     -0.35425400     -4.53761000      2.44138000
  O     -0.53977200     -5.71254000      3.09198000
  C      4.69098000      1.64179000      0.32713500
  O      5.77360000      2.22079000      0.71275900
  C      4.25563000     -0.45737700      2.69939000
  O      5.33226000     -0.59243300      3.48454000
  C     -0.89568700     -2.31675000      4.62703000
  O     -1.10931000     -2.85819000      5.85704000
  C      3.45527000      4.10353000     -0.65952200
  O      4.29878000      5.06997000     -1.01829000
  C     -1.62268000      3.17987000     -3.75254000
  O     -2.21549000      3.95960000     -4.60873000
  C      3.50387000     -3.21896000     -2.02989000
  O      4.32931000     -4.18621000     -2.42602000
  C      1.77167000     -4.68357000      0.44076800
  O      2.27545000     -5.94012000      0.51660700
  C      3.91004000      1.68108000     -2.99672000
  O      5.00166000      1.93242000     -3.73480000

