110
Energy = -12542.10738167 au
 Ni      0.67218600     -3.62493000     -2.08558000
 Ni     -1.01303000     -0.35950900     -1.13569000
 Ni      0.94146700     -4.20314000      0.31266900
 Ni     -0.52021200      4.06262000     -0.08535640
 Ni     -0.88621400      2.10350000     -1.95402000
 Ni     -2.93164000      0.29842900      0.58659600
 Ni     -0.71017900     -0.96505600      1.34841000
 Ni     -0.25455500      3.50240000      2.35708000
 Ni      0.82161900     -1.02336000     -2.87986000
 Ni      3.52841000     -0.35628000     -0.45788700
 Ni      1.12145000     -1.62784000     -0.36024400
 Ni      2.98864000     -2.31783000     -2.01498000
 Ni      3.57743000      2.07876000     -1.09395000
 Ni      1.85671000     -0.29639900      3.96137000
 Ni      1.55684000      0.24997000      1.37373000
 Ni      3.18007000      0.25672400     -2.87787000
 Ni      1.39779000      3.37986000     -1.91693000
 Ni     -1.45768000     -2.29688000     -2.92036000
 Ni      3.69521000     -1.02618000      2.19841000
 Ni     -1.14472000     -2.96746000     -0.41878200
 Ni      3.77501000      1.47643000      1.52278000
 Ni      1.25400000      0.86213200     -1.11436000
 Ni     -1.35027000      0.31947200     -3.68548000
 Ni     -3.33683000     -1.51840000     -1.19269000
 Ni      2.10060000      2.15686000      3.17755000
 Ni     -0.32436000      0.99572900      3.28261000
 Ni      3.29214000     -2.90673000      0.41535900
 Ni     -0.79279300     -3.64403000      2.08234000
 Ni     -2.73157000      2.85701000     -0.10818800
 Ni      1.76238000      2.81138000      0.67513800
 Ni     -2.46282000      2.29682000      2.35561000
 Ni     -2.61030000     -0.33551400      3.22150000
 Ni      0.90869500      1.51994000     -3.68931000
 Ni     -0.57093900      1.53105000      0.59985800
 Ni     -3.01578000     -2.22563000      1.40657000
 Ni     -0.32418700     -1.57944000      3.90355000
 Ni     -3.27808000      0.97291500     -2.00959000
 Ni      1.57571000     -2.45743000      2.23130000
  C      3.99992000     -2.85462000      2.12656000
  O      4.94523000     -3.57444000      2.63277000
  C      0.47525500     -0.99517300     -4.86831000
  O      0.74540200     -1.38371000     -6.07539000
  C     -1.34723000      2.74492000      3.82430000
  O     -1.68130000      3.31373000      4.93783000
  C     -0.02817020     -0.08430940      4.96250000
  O     -0.08633540      0.07820680      6.24457000
  C     -2.24268000     -4.89748000      1.24014000
  O     -2.62713000     -5.98046000      1.85661000
  C      3.66207000      0.35030900      3.58075000
  O      4.59383000      0.32851200      4.48774000
  C     -4.64905000      2.43894000     -0.79401800
  O     -5.65270000      3.25983000     -0.94866200
  C      2.69761000      1.31877000     -4.54670000
  O      3.30858000      1.67541000     -5.70437000
  C      1.31348000      5.16834000     -0.45913100
  O      1.39142000      6.50669000     -0.50404000
  C      3.58740000      4.10785000     -1.09140000
  O      4.60862000      4.87200000     -1.45825000
  C      1.16424000      4.97717000      2.45120000
  O      1.13002000      6.02351000      3.20863000
  C     -2.46060000     -1.10158000     -4.49059000
  O     -3.00133000     -1.28710000     -5.70419000
  C      3.30578000      3.22424000      1.93833000
  O      4.11295000      4.19176000      2.23998000
  C     -3.80662000     -3.33301000     -0.43972100
  O     -4.81384000     -4.20803000     -0.64591900
  C      1.62454000      2.04003000      5.22895000
  O      2.24532000      2.81462000      6.07163000
  C     -4.87558000     -0.22912200      0.57524300
  O     -6.13442000     -0.11585200      0.79161700
  C      1.03796000     -3.69797000     -4.01157000
  O      1.21419000     -4.76881000     -4.72402000
  C     -2.03737000      4.29930000      1.08134000
  O     -2.64538000      5.43160000      1.26970000
  C      4.45307000     -1.98186000     -0.75163300
  O      5.71760000     -2.24214000     -0.90907700
  C     -2.37287000     -3.98147000     -2.89423000
  O     -2.90427000     -4.70091000     -3.86966000
  C      1.13391000     -4.45154000      2.14741000
  O      1.57999000     -5.53511000      2.69906000
  C      5.30428000      0.48962500      0.80046500
  O      6.62228000      0.79772300      0.99967100
  C     -4.57234000      2.03460000      2.30586000
  O     -5.42409000      2.68543000      3.01246000
  C     -3.23418000      2.08218000     -3.68373000
  O     -4.18399000      2.57216000     -4.43624000
  C      1.68698000     -2.15938000      4.10118000
  O      2.19750000     -2.89941000      5.03723000
  C      2.54128000     -4.25660000     -0.93814300
  O      3.23321000     -5.33734000     -1.14040000
  C      3.41230000     -1.63793000     -3.85149000
  O      4.32396000     -2.23334000     -4.67707000
  C      4.68967000      0.94413600     -2.05863000
  O      5.85584000      1.08998000     -2.59913000
  C     -1.41753000     -3.38017000      4.07978000
  O     -1.60781000     -4.04763000      5.22890000
  C     -4.12882000     -2.23048000      3.07069000
  O     -5.21103000     -2.82603000      3.48060000
  C     -2.87022000      0.08784850      5.09555000
  O     -3.87084000      0.02575920      5.89458000
  C      1.17818000      3.87964000     -3.81869000
  O      1.60259000      4.93567000     -4.48780000
  C     -1.67755000      4.23536000     -1.99228000
  O     -2.13283000      5.26631000     -2.71980000
  C     -0.36759800     -4.84389000     -1.01473000
  O     -0.71222900     -6.07869000     -1.18234000
  C     -4.70635000     -0.51678500     -2.52518000
  O     -5.90825000     -0.75544100     -3.03229000
  C     -0.80627000      2.02929000     -4.71577000
  O     -1.00151000      2.53582000     -5.96715000
