#B3LYP/6-31+G(d) OPT FREQ

110, Energy = -12086.95311064 au

0 1
 Ni      1.95127000      0.98773000      3.47366000
 Ni      0.76418600     -1.24122000      0.70797500
 Ni     -0.53212000      1.89784000      3.76736000
 Ni      0.23951900     -1.69151000     -3.82853000
 Ni      1.68796000     -1.90616000     -1.68921000
 Ni     -1.31204000     -2.93536000      0.35185400
 Ni     -1.61928000     -0.33958300      0.95375400
 Ni     -2.22528000     -0.72031400     -3.55973000
 Ni      2.79399000      0.35132500      1.09305000
 Ni      0.90340200      3.08710000     -0.42257000
 Ni      0.38636900      1.23123000      1.34161000
 Ni      2.48061000      2.85444000      1.69305000
 Ni      1.86633000      2.45493000     -2.76554000
 Ni     -3.42779000      2.50028000     -0.62563100
 Ni     -1.10273000      1.50830000     -0.76661000
 Ni      3.42613000      2.20915000     -0.69118800
 Ni      2.31669000     -0.07516130     -3.39613000
 Ni      2.33935000     -1.50535000      2.84882000
 Ni     -1.52227000      4.07332000     -0.27099600
 Ni     -0.16064900     -0.60009600      3.03373000
 Ni     -0.67599700      3.45382000     -2.55779000
 Ni      1.29278000      0.59327100     -1.00670000
 Ni      3.23097000     -2.20700000      0.46614900
 Ni      0.25347800     -3.12880000      2.45407000
 Ni     -2.60387000      1.90249000     -2.85486000
 Ni     -3.13151000     -0.09750760     -1.10862000
 Ni      0.00978776      3.75268000      1.93981000
 Ni     -2.54197000      0.31746100      3.37169000
 Ni     -0.23985700     -3.54000000     -2.08554000
 Ni     -0.21761500      0.86178400     -3.14193000
 Ni     -2.78331000     -2.61388000     -1.72840000
 Ni     -3.67262000     -1.97649000      0.60109900
 Ni      3.73263000     -0.28621100     -1.34007000
 Ni     -0.71656400     -0.97910600     -1.39337000
 Ni     -2.17291000     -2.21432000      2.76953000
 Ni     -4.06690000      0.57381300      1.21752000
 Ni      1.18513000     -3.80874000      0.07511050
 Ni     -1.97336000      2.15925000      1.61383000
  C     -0.04670610      5.80006000     -1.17752000
  O     -0.12460900      7.07764000     -1.24616000
  C     -3.93530000     -1.40843000     -4.05723000
  O     -4.53360000     -1.66855000     -5.17189000
  C     -4.62616000     -2.89087000     -1.20740000
  O     -5.77572000     -3.41032000     -1.65156000
  C      3.24819000     -1.73311000     -3.88390000
  O      3.96177000     -2.11654000     -4.90966000
  C     -4.50557000      1.27681000     -2.69942000
  O     -5.64595000      1.61847000     -3.29812000
  C     -2.69190000     -4.49266000      0.10553900
  O     -3.17051000     -5.67477000      0.34884600
  C      5.04082000     -0.01963530      1.54117000
  O      6.25807000      0.06039880      1.90406000
  C      1.43796000     -3.95921000     -3.40424000
  O      1.72898000     -4.86529000     -4.29681000
  C     -1.78409000      4.92995000      1.97279000
  O     -2.25606000      6.11523000      2.29963000
  C      0.48666200      0.76645100      5.26665000
  O      0.71297000      1.06370000      6.54898000
  C      2.92966000      4.10348000     -2.09011000
  O      3.50185000      5.03406000     -2.84328000
  C     -1.93792000     -3.96751000     -3.09351000
  O     -2.39197000     -5.02383000     -3.81629000
  C      0.96930200     -2.37041000      4.44231000
  O      1.14928000     -2.95108000      5.63990000
  C     -1.58713000     -4.11575000      3.27175000
  O     -1.99530000     -5.03888000      4.13784000
  C      0.08485380     -5.34123000     -0.76155700
  O      0.24533800     -6.65799000     -0.89558700
  C     -4.53002000      0.66337600      3.14901000
  O     -5.61826000      0.83417700      3.94696000
  C     -4.38717000      3.01535000      1.15766000
  O     -5.41752000      3.86611000      1.23734000
  C      5.01832000     -1.74992000     -1.02779000
  O      6.25509000     -2.01819000     -1.40275000
  C     -5.54089000     -0.34840900      0.43495200
  O     -6.82422000     -0.13388000      0.18989000
  C      4.95195000      2.68675000      0.43493100
  O      6.02715000      3.36668000      0.19256000
  C     -2.08604000     -1.15721000      4.82434000
  O     -2.53116000     -1.38330000      6.06485000
  C      0.87309600      3.83053000      3.73455000
  O      0.96942300      4.87454000      4.58265000
  C      3.67566000      2.71102000      3.26747000
  O      4.50047000      3.29379000      4.09981000
  C     -0.27802400     -0.96548000     -5.61076000
  O     -0.31990400     -1.57875000     -6.75107000
  C      1.43069000     -4.86078000      1.92330000
  O      1.70991000     -5.99999000      2.53943000
  C      1.70221000      1.43239000     -4.85753000
  O      2.05121000      1.75245000     -6.10232000
  C     -2.12047000      1.59424000     -4.80353000
  O     -2.46890000      1.91279000     -6.03331000
  C     -2.63785000      3.96039000     -1.90848000
  O     -3.35920000      4.93578000     -2.37747000
  C     -2.36769000      2.33153000      4.51181000
  O     -2.95263000      3.10048000      5.42028000
  C      0.35015800      3.82799000     -4.52468000
  O      0.12391200      4.90387000     -5.18839000
  C     -4.21046000     -2.58223000      2.40334000
  O     -5.29648000     -3.12651000      2.89835000
  C      4.30781000      1.19742000     -3.00057000
  O      5.41839000      1.51369000     -3.66902000
  C      2.26432000      4.71757000      0.71799600
  O      2.79407000      5.89558000      1.01777000
  C      3.41095000     -0.40551500      4.41298000
  O      4.23546000     -0.57561900      5.41790000
  C      3.92482000     -3.11854000      2.04737000
  O      4.92846000     -3.82340000      2.52709000
  C      3.13567000     -3.93882000     -1.03374000
  O      3.98441000     -4.94406000     -1.26794000

