110
Energy = -12451.86671128 au
 Ni     -2.22414000     -3.06455000     -2.53977000
 Ni     -1.28486000      0.55805800     -1.81250000
 Ni     -2.48773000     -3.58025000     -0.12000400
 Ni      2.18680000      3.52715000     -0.88987100
 Ni      0.57386400      2.43698000     -2.69439000
 Ni     -2.48044000      2.43073000     -0.21380400
 Ni     -1.62948000      0.05107900      0.70659700
 Ni      1.85968000      2.91461000      1.78845000
 Ni     -0.25608000     -1.35444000     -3.54053000
 Ni      1.83620000     -2.45038000     -0.69568900
 Ni     -0.67902200     -1.76807000     -0.87745300
 Ni      0.34600600     -3.60071000     -2.45972000
 Ni      3.72148000     -0.76469300     -1.49555000
 Ni      0.48318700     -1.11744000      3.57705000
 Ni      0.86526800     -0.61213300      0.90090400
 Ni      2.21987000     -1.91388000     -3.30367000
 Ni      3.15873000      1.53896000     -2.41040000
 Ni     -2.77009000     -0.53306500     -3.59690000
 Ni      1.62698000     -3.08373000      1.95176000
 Ni     -3.35691000     -1.17057000     -1.14060000
 Ni      3.46297000     -1.38547000      1.15935000
 Ni      1.19260000     -0.09839070     -1.62544000
 Ni     -1.04966000      1.12483000     -4.40876000
 Ni     -3.77299000      1.20640000     -2.05973000
 Ni      2.44065000      0.57859100      2.76032000
 Ni     -0.10907600      1.25919000      2.56008000
 Ni     -0.09807280     -4.15538000     -0.02298300
 Ni     -3.60307000     -1.65873000      1.45288000
 Ni     -0.36664400      4.09669000     -1.03963000
 Ni      2.79929000      1.12910000      0.17221300
 Ni     -0.87733000      3.59239000      1.59242000
 Ni     -2.67803000      1.98911000      2.29520000
 Ni      1.53069000      0.35163800     -4.11702000
 Ni      0.23286600      1.72597000     -0.06229290
 Ni     -4.22621000      0.67307200      0.41587100
 Ni     -2.02437000     -0.48264200      3.40206000
 Ni     -1.95804000      2.83327000     -2.90272000
 Ni     -1.03516000     -2.45561000      1.70740000
  C     -3.07372000      3.60002000      1.32968000
  O     -3.94204000      4.54494000      1.46235000
  C     -4.95086000     -1.06960000     -0.15937100
  O     -6.17477000     -1.40819000     -0.43550900
  C      2.41546000      2.62980000     -4.10178000
  O      2.74802000      2.93637000     -5.39657000
  C     -4.49393000     -3.52349000     -1.80413000
  O     -5.08106000     -4.71217000     -1.57742000
  C     -3.09246000      1.70059000     -4.05503000
  O     -3.98200000      2.07854000     -4.91882000
  C      4.13855000      2.46753000      1.43685000
  O      5.33629000      2.94197000      1.68745000
  C     -1.06743000     -4.78292000     -1.80516000
  O     -1.17415000     -6.03882000     -2.11293000
  C     -4.30363000     -1.86396000     -2.78600000
  O     -5.18947000     -1.91951000     -3.71491000
  C     -3.11782000     -0.26342500      5.00580000
  O     -3.95346000     -0.57942700      5.89406000
  C     -2.25127000      2.60565000      4.03185000
  O     -2.89996000      3.30378000      4.91679000
  C      2.36442000      4.65811000      0.92671200
  O      3.04044000      5.78574000      1.24219000
  C     -0.55293100      5.37742000      0.65219800
  O     -0.81735800      6.68967000      0.74982200
  C      5.08476000     -0.14133500     -0.00240020
  O      6.43113000     -0.13728300     -0.05461160
  C      4.04931000     -3.22887000      1.65762000
  O      5.11106000     -3.87890000      2.01407000
  C     -4.61165000      0.73039600      2.41190000
  O     -5.86190000      1.03516000      2.86423000
  C     -1.13010000     -0.95456600     -5.32877000
  O     -1.28914000     -0.82152900     -6.61316000
  C     -0.83685300     -2.47375000     -5.03689000
  O     -1.23585000     -3.63268000     -5.41109000
  C      0.23374400      3.96098000      3.27000000
  O      0.26800200      5.00150000      4.09282000
  C      4.12550000     -0.07424430     -3.21956000
  O      5.27975000     -0.11340900     -3.98385000
  C      1.15273000      4.52981000     -2.11276000
  O      1.46837000      5.61017000     -2.74639000
  C      1.38839000     -4.23618000      3.58492000
  O      1.90200000     -5.31430000      4.03137000
  C     -0.55587400      3.00915000     -4.21907000
  O     -0.47826000      3.85691000     -5.19593000
  C      4.22362000      3.29980000     -1.56714000
  O      5.21423000      4.00343000     -2.09938000
  C     -1.01935000     -2.64226000      4.06510000
  O     -1.30526000     -3.46179000      5.09539000
  C      2.01363000     -1.46817000      4.62965000
  O      2.38556000     -1.80691000      5.82165000
  C     -4.79541000      2.07188000     -0.75617800
  O     -5.91897000      2.66748000     -0.94406000
  C      4.06872000     -2.80356000     -1.46776000
  O      4.98758000     -3.64429000     -1.94235000
  C     -3.82093000     -3.20389000      2.97350000
  O     -4.94929000     -3.75722000      3.23612000
  C     -2.51368000      4.54108000     -1.44662000
  O     -3.17766000      5.44542000     -2.20801000
  C      1.95078000     -4.73410000      0.03760390
  O      2.50631000     -5.95133000     -0.10081100
  C     -0.12501600      0.63398200      4.78771000
  O     -0.12028200      1.04445000      6.05662000
  C      1.62426000     -1.31553000     -4.96706000
  O      1.95918000     -1.67582000     -6.15842000
  C      2.42017000      2.14902000      3.94538000
  O      3.08981000      2.66463000      4.97129000
  C      2.53482000     -3.88788000     -3.41660000
  O      2.71519000     -4.83791000     -4.32246000
  C     -1.41772000     -4.56311000      1.29638000
  O     -1.65671000     -5.66281000      1.93199000
  C      4.18818000     -0.27875400      2.97643000
  O      5.21914000     -0.31431600      3.82507000
