110
Energy = -12830.70232988 au
 Ni     -0.97335400     -3.34514000     -2.17281000
 Ni     -1.57466000      0.21511600     -1.07785000
 Ni     -0.67783200     -4.09512000      0.26978000
 Ni      0.37183200      4.32488000     -0.20350400
 Ni     -0.94248400      2.93897000     -1.96474000
 Ni     -3.48135000      1.41185000      0.79544800
 Ni     -1.27824000     -0.50048400      1.38316000
 Ni      0.51428000      3.60590000      2.33726000
 Ni     -0.02856640     -0.88137100     -2.97079000
 Ni      2.72065000     -1.09318000     -0.64128200
 Ni      0.17446400     -1.63629000     -0.47659400
 Ni      1.75552000     -2.71836000     -2.43339000
 Ni      3.52019000      1.30877000     -1.39646000
 Ni      1.48291000     -0.84306800      3.84424000
 Ni      1.25012000      0.03272150      1.23403000
 Ni      2.46148000     -0.19233900     -3.18082000
 Ni      1.86383000      3.09743000     -2.06549000
 Ni     -2.62254000     -1.44582000     -2.80191000
 Ni      3.11295000     -1.81351000      1.87864000
 Ni     -2.50067000     -2.25606000     -0.26468300
 Ni      3.84859000      0.58826900      1.06167000
 Ni      0.94411500      0.78913500     -1.27031000
 Ni     -1.91229000      0.91469100     -3.54811000
 Ni     -4.09439000     -0.33604100     -1.05459000
 Ni      2.31932000      1.70601000      3.02340000
 Ni     -0.36234100      1.32036000      3.47768000
 Ni      1.95484000     -3.52350000      0.05427540
 Ni     -2.14267000     -2.84486000      2.26723000
 Ni     -2.23780000      3.82442000     -0.04607760
 Ni      2.08320000      2.50701000      0.49515700
 Ni     -2.07412000      2.97896000      2.49749000
 Ni     -2.91424000      0.42943100      3.30856000
 Ni      0.74220300      1.68887000     -3.81448000
 Ni     -0.52626100      1.86754000      0.60524700
 Ni     -3.79065000     -1.11584000      1.53911000
 Ni     -1.01123000     -1.27350000      3.89720000
 Ni     -3.36422000      1.99308000     -1.79692000
 Ni      0.51484800     -2.50807000      2.11203000
  C     -2.90604000     -3.36280000     -3.08359000
  O     -3.54536000     -4.09267000     -4.00468000
  C      4.87810000      2.15942000     -0.22050400
  O      6.12636000      2.62602000     -0.37957100
  C      0.01180520      0.00355257      4.82915000
  O     -0.04356730      0.19282600      6.11389000
  C      3.10105000      0.30103500      4.23182000
  O      3.81511000      0.40631000      5.38752000
  C      0.97112700      2.71554000      3.92591000
  O      1.08397000      3.31456000      5.07419000
  C     -2.91538000      3.80837000     -1.80182000
  O     -3.58608000      4.75854000     -2.37236000
  C     -2.34260000      2.03365000      4.09348000
  O     -2.86068000      2.53181000      5.17196000
  C      3.89813000     -2.97650000      0.40267600
  O      5.11006000     -3.65322000      0.29467900
  C     -1.14864000     -4.68646000      2.24199000
  O     -1.46450000     -5.86304000      2.85408000
  C      3.11358000      1.79709000     -3.27425000
  O      4.06140000      2.20879000     -4.05982000
  C      1.52696000     -4.78289000      1.46920000
  O      1.99916000     -5.95858000      1.89787000
  C      3.88593000      2.61305000      2.33073000
  O      4.85493000      3.39071000      2.87512000
  C      0.87250900      1.28046000     -5.64788000
  O      1.26790000      1.86665000     -6.74551000
  C     -4.00112000     -2.96388000      2.00759000
  O     -4.97735000     -3.62591000      2.45479000
  C     -4.46091000      0.49925600      2.20277000
  O     -5.69442000      0.67517700      2.57794000
  C      2.96133000     -2.74352000      3.58634000
  O      3.80526000     -3.44887000      4.33851000
  C     -3.75306000      0.09397760     -3.23073000
  O     -4.69305000      0.08405920     -4.12670000
  C     -1.15428000      5.28782000     -0.48925200
  O     -1.34624000      6.56070000     -0.59327100
  C      0.32034000     -2.57076000      4.03028000
  O      0.42654100     -3.48099000      4.93706000
  C     -2.16371000      2.67242000     -4.23497000
  O     -2.50379000      3.27188000     -5.36491000
  C      3.07334000     -4.08926000     -2.01409000
  O      3.75963000     -5.03805000     -2.63689000
  C     -2.40363000     -4.11375000     -0.46203900
  O     -3.33358000     -5.00343000     -0.57900000
  C     -1.16664000     -0.71512600     -4.82453000
  O     -1.16222000     -1.12006000     -6.11117000
  C      4.50880000     -0.71165100     -2.00304000
  O      5.72950000     -1.17051000     -2.32045000
  C      5.14503000     -0.73897100      1.65648000
  O      6.38925000     -0.75004900      2.12753000
  C     -4.99832000     -1.95115000     -0.56999100
  O     -6.18501000     -2.47125000     -0.92742200
  C     -1.08104000      4.59867000      2.54706000
  O     -1.36607000      5.73116000      3.29248000
  C      0.38724700      3.70836000     -3.06058000
  O      0.29347800      4.79423000     -3.76419000
  C     -4.78457000      1.39087000     -0.71664400
  O     -6.01749000      1.77431000     -0.85962100
  C      0.28523500     -3.38121000     -3.90634000
  O      0.32521400     -4.20293000     -4.98157000
  C      2.34247000     -1.55449000     -4.53561000
  O      3.01030000     -1.86663000     -5.63879000
  C     -3.49842000      3.27886000      1.28910000
  O     -4.58151000      3.94882000      1.55809000
  C      2.75366000      4.56126000     -0.97309400
  O      3.62664000      5.48372000     -1.38928000
  C      1.65232000      4.55949000      1.20310000
  O      2.32013000      5.59900000      1.59228000
  C     -2.91765000     -1.37252000      3.99822000
  O     -3.49414000     -1.72831000      5.09790000
  C      0.15797600     -5.02058000     -1.37924000
  O      0.09265470     -6.36154000     -1.66841000
