#B3LYP/6-31+G(d) OPT FREQ

110, Energy = -11762.25399830 au

0 1
 Ni     -4.04132000      0.01859040     -1.79386000
 Ni     -0.85632000      1.76568000     -1.01905000
 Ni     -4.25419000     -0.75756700      0.64898800
 Ni      3.70309000      1.37530000     -0.88216200
 Ni      1.45727000      1.96080000     -2.14704000
 Ni     -0.04721590      3.28966000      0.88621400
 Ni     -1.02041000      0.97253700      1.40884000
 Ni      3.47564000      0.58756500      1.57430000
 Ni     -1.69568000      0.25094500     -2.93843000
 Ni     -0.52920700     -2.66001000     -1.09879000
 Ni     -1.86699000     -0.54356800     -0.48842500
 Ni     -2.69953000     -2.07362000     -2.42622000
 Ni      1.80781000     -2.48941000     -2.25710000
 Ni      0.13518500     -1.97428000      3.26700000
 Ni      0.28923600     -1.14025000      0.79872800
 Ni     -0.36066600     -1.87491000     -3.57924000
 Ni      2.80936000     -0.15048500     -2.79703000
 Ni     -3.01796000      2.39567000     -2.33738000
 Ni     -0.69811300     -3.50816000      1.34514000
 Ni     -3.17244000      1.57332000      0.11348100
 Ni      1.63739000     -3.31045000      0.19651300
 Ni      0.45341100     -0.34816200     -1.62824000
 Ni     -0.71976000      2.60319000     -3.46987000
 Ni     -2.19783000      3.91316000     -0.43526100
 Ni      2.46613000     -1.76875000      2.12810000
 Ni      1.12496000      0.37655700      2.71083000
 Ni     -2.88829000     -2.86467000      0.01447140
 Ni     -3.36899000      0.76454100      2.57046000
 Ni      2.31686000      3.48977000     -0.25947500
 Ni      2.60128000     -0.93732200     -0.33849600
 Ni      2.11673000      2.71384000      2.21420000
 Ni     -0.20680400      2.51503000      3.36746000
 Ni      0.64386500      0.44042200     -4.09082000
 Ni      1.29869000      1.16724000      0.26892900
 Ni     -2.35151000      3.11581000      2.03477000
 Ni     -1.20042000      0.16805200      3.87502000
 Ni      0.11791500      4.11788000     -1.57470000
 Ni     -2.02569000     -1.33446000      1.92885000
  C      1.91555000     -3.64328000      3.41195000
  O      2.26656000     -4.39842000      4.37425000
  C      4.56554000     -2.51217000      0.93534300
  O      5.71242000     -2.91559000      1.36864000
  C      1.49288000      1.13834000      4.84250000
  O      1.98710000      1.56288000      5.93891000
  C     -1.74914000     -3.72258000     -3.28876000
  O     -2.29265000     -4.55002000     -4.17329000
  C     -1.75866000      4.95388000      1.57558000
  O     -2.15987000      6.18677000      1.44004000
  C      3.62526000      2.06647000     -3.22596000
  O      4.53821000      2.60765000     -3.98205000
  C      3.87537000     -3.14553000     -1.81190000
  O      4.68907000     -3.87346000     -2.46487000
  C      3.44085000     -0.86709300      3.80842000
  O      4.23211000     -1.09265000      4.80216000
  C     -1.68073000      4.65252000     -2.49302000
  O     -1.88339000      5.84194000     -2.95056000
  C     -5.47457000      0.90842800      0.73765700
  O     -6.74303000      0.79174400      1.11033000
  C     -2.45605000     -4.79685000     -0.53642800
  O     -3.23118000     -5.83617000     -0.55431000
  C     -1.91713000     -3.06573000      3.56532000
  O     -2.41524000     -3.91858000      4.41148000
  C      1.95218000      4.69700000     -2.69891000
  O      2.31983000      5.86071000     -3.10224000
  C      0.07581320     -1.41751000      5.34418000
  O      0.05396080     -1.74550000      6.58914000
  C      1.18420000      5.01488000      0.87814100
  O      1.69368000      6.29151000      1.00523000
  C     -3.91997000     -0.82386600      3.83388000
  O     -4.77491000     -0.85092300      4.82458000
  C     -4.51346000     -2.30071000     -1.61698000
  O     -5.65247000     -2.76379000     -2.00453000
  C     -4.41871000      2.60075000      2.55047000
  O     -5.03663000      3.45697000      3.36531000
  C     -4.39050000     -2.82533000      1.51927000
  O     -5.47908000     -3.45858000      1.93301000
  C     -2.88809000     -0.87734200     -4.12491000
  O     -3.58037000     -1.04421000     -5.19666000
  C      1.10417000     -3.16226000     -4.24439000
  O      1.40597000     -3.99885000     -5.25002000
  C      5.27958000     -0.60573200     -1.24299000
  O      6.47732000     -0.44453400     -1.69303000
  C      5.74678000      0.55136800      1.87510000
  O      6.84046000      1.02333000      2.35553000
  C     -0.32221700     -5.47999000      1.71436000
  O     -0.47029600     -6.64690000      2.15391000
  C     -1.66543000      1.90108000      4.87223000
  O     -1.98604000      2.16499000      6.13801000
  C      2.60359000     -4.92577000      0.92036100
  O      3.37396000     -5.92404000      0.92585600
  C      0.52126700     -4.94523000     -1.56858000
  O      0.64162700     -6.13108000     -1.96995000
  C      0.96486000      2.63412000     -4.79472000
  O      1.12344000      3.22591000     -5.98648000
  C     -0.29415500     -0.75641600     -5.33074000
  O     -0.28478900     -0.64929500     -6.72686000
  C     -5.33168000      1.27240000     -2.84833000
  O     -6.54537000      1.40054000     -3.25447000
  C      4.58334000      3.65916000      0.26024400
  O      5.57453000      4.34698000     -0.14010500
  C     -4.25620000      3.20837000     -0.69739000
  O     -5.12234000      4.14366000     -0.82005600
  C     -2.48361000      2.10635000     -4.23240000
  O     -3.08294000      2.75407000     -5.16997000
  C      3.88325000      3.75714000      3.03985000
  O      4.45902000      4.47045000      3.89530000
  C     -0.03402570      4.62874000      3.94874000
  O     -0.14286500      5.52157000      4.80051000
  C      2.92226000     -0.88356800     -4.87668000
  O      3.86807000     -1.00793000     -5.72691000

