#B3LYP/6-31+G(d) OPT FREQ

110, Energy = -12470.85769568 au

0 1
 Ni      1.08589000     -3.31407000     -2.07345000
 Ni     -0.81039800     -0.02326590     -1.74304000
 Ni      0.74325600     -3.95812000      0.47988000
 Ni     -0.49060100      4.36870000     -0.86997000
 Ni     -0.47973600      2.61486000     -2.80483000
 Ni     -2.93385000      0.61197900     -0.54665900
 Ni     -1.16716000     -0.57084600      0.79851400
 Ni     -0.88830200      3.97713000      1.68931000
 Ni      1.48123000     -0.81984900     -2.98246000
 Ni      3.38297000     -0.08752200      0.15412100
 Ni      1.04108000     -1.30519000     -0.39649700
 Ni      3.33506000     -2.09110000     -1.66590000
 Ni      3.53683000      2.54870000     -0.77189800
 Ni      0.75314900      0.02581470      3.96625000
 Ni      1.07842000      0.63954800      1.32253000
 Ni      3.61303000      0.56994800     -2.45994000
 Ni      1.68093000      3.68636000     -2.12559000
 Ni     -0.91313500     -2.03618000     -3.45806000
 Ni      2.96591000     -0.63759600      2.76781000
 Ni     -1.18459000     -2.53459000     -0.94127800
 Ni      3.28895000      1.87069000      1.87663000
 Ni      1.40763000      1.18544000     -1.18969000
 Ni     -0.39994700      0.37127600     -4.33576000
 Ni     -3.17209000     -1.27104000     -2.38850000
 Ni      1.08582000      2.53910000      3.05614000
 Ni     -1.15411000      1.38427000      2.49154000
 Ni      3.00685000     -2.59764000      0.82921100
 Ni     -1.54356000     -3.17811000      1.55717000
 Ni     -2.61237000      3.13795000     -1.29680000
 Ni      1.48262000      3.41611000      0.60147300
 Ni     -3.03698000      2.66214000      1.26902000
 Ni     -3.45445000      0.17258500      2.05389000
 Ni      1.60947000      1.70371000     -3.72068000
 Ni     -0.76465200      1.92884000     -0.01402730
 Ni     -3.48583000     -1.88181000      0.15075100
 Ni     -1.54964000     -1.12211000      3.45560000
 Ni     -2.62788000      1.20266000     -3.24040000
 Ni      0.72459400     -1.90481000      2.20919000
  C     -0.32667200      1.70647000      4.75003000
  O     -0.66396300      2.17672000      5.97521000
  C      3.11049000      2.85875000     -3.25646000
  O      3.68077000      3.54197000     -4.20832000
  C      3.18249000     -4.11682000     -1.82347000
  O      4.04579000     -4.90546000     -2.48094000
  C     -0.85747600      2.15895000     -4.63619000
  O     -1.00439000      2.74711000     -5.79666000
  C     -2.86722000      3.38781000     -3.31373000
  O     -3.64814000      4.34320000     -3.91753000
  C      0.73919600     -3.61676000      3.13808000
  O      1.07029000     -4.33821000      4.13448000
  C     -4.96883000     -1.37619000     -1.62783000
  O     -6.10581000     -1.87290000     -2.11720000
  C      2.65166000      1.72578000      4.18380000
  O      3.27299000      2.20337000      5.31537000
  C      4.58897000     -1.40185000     -0.44185000
  O      5.87910000     -1.49686000     -0.42336900
  C      2.65706000      4.37950000     -0.64858600
  O      3.16102000      5.57755000     -0.66671300
  C     -2.38910000      3.61026000      3.21451000
  O     -2.81570000      4.51120000      4.11421000
  C     -4.77223000      1.57585000     -0.90248400
  O     -6.02304000      1.63028000     -1.17345000
  C      1.05613000     -2.94217000     -4.17027000
  O      1.49124000     -3.71776000     -5.20331000
  C     -0.91428900     -5.16876000      1.10772000
  O     -1.15547000     -6.39786000      1.54995000
  C      0.85891900      4.35525000      2.44179000
  O      1.26301000      5.39309000      3.10239000
  C      4.85175000      0.49655700      2.20425000
  O      6.09191000      0.49569300      2.74100000
  C     -2.66879000     -3.02425000      3.17608000
  O     -3.33601000     -3.87746000      3.96730000
  C      5.25796000      1.38572000     -1.37353000
  O      6.38865000      2.05591000     -1.67224000
  C     -0.01708580      4.45726000     -2.77970000
  O     -0.11527100      5.36431000     -3.70098000
  C      3.90008000      3.68595000      1.52931000
  O      4.84374000      4.50253000      1.99467000
  C     -4.86561000     -1.36311000      1.47925000
  O     -6.10732000     -1.75359000      1.81896000
  C     -3.94338000      0.06242840     -4.18910000
  O     -4.85846000      0.16385100     -5.12223000
  C     -2.91955000      4.30730000      0.21738900
  O     -3.83848000      5.21359000      0.28594900
  C      4.00553000     -2.72001000      2.45503000
  O      4.99379000     -3.49413000      2.89931000
  C      2.49629000     -4.89158000      0.69395200
  O      2.99460000     -6.10173000      0.78957000
  C     -0.51339900     -1.24297000      5.27115000
  O     -0.64960100     -1.67626000      6.51387000
  C     -3.04173000      0.23292000      4.19332000
  O     -3.83172000      0.28694200      5.28060000
  C      4.15554000     -1.10947000     -3.58484000
  O      5.21825000     -1.21994000     -4.39369000
  C      2.60286000     -1.25482000      4.62697000
  O      3.27967000     -1.57314000      5.72216000
  C      1.47331000      0.08451740     -4.71455000
  O      2.00502000     -0.21549500     -5.86271000
  C     -2.64321000     -3.36722000     -2.95705000
  O     -3.16875000     -4.36143000     -3.68460000
  C     -3.27641000     -3.89097000     -0.00991347
  O     -4.12503000     -4.91666000     -0.11643700
  C     -1.40289000     -1.15831000     -5.17748000
  O     -1.74806000     -1.57761000     -6.42442000
  C     -4.81221000      1.70058000      1.98186000
  O     -5.87615000      2.10040000      2.70540000
  C     -0.18323400     -4.86843000     -1.55712000
  O     -0.35063700     -6.09287000     -2.07410000
  C     -0.02817850      5.81724000      0.76896400
  O     -0.42723500      7.07782000      0.57718400

