#B3LYP/6-31+G(d) OPT FREQ

110, Energy = -12328.61173550 au

0 1
 Ni      0.53790500     -3.23561000     -2.14835000
 Ni     -1.07360000      0.07629790     -1.36211000
 Ni      0.62399100     -3.81001000      0.35636900
 Ni     -0.29038300      4.53375000     -0.48044200
 Ni     -0.79017200      2.62333000     -2.24869000
 Ni     -2.97912000      0.85306000      0.22300800
 Ni     -0.96733600     -0.47851000      1.14422000
 Ni     -0.18954100      3.88106000      2.04139000
 Ni      0.82111600     -0.72436600     -2.93119000
 Ni      3.24077000     -0.16232300     -0.26933100
 Ni      0.91826500     -1.26613000     -0.42141000
 Ni      2.83598000     -2.02751000     -2.05190000
 Ni      3.54527000      2.36272000     -1.07670000
 Ni      1.48046000      0.08702260      3.84408000
 Ni      1.34153000      0.64347500      1.27736000
 Ni      3.13968000      0.46774300     -2.80956000
 Ni      1.52065000      3.70055000     -2.07465000
 Ni     -1.53178000     -1.84708000     -3.10172000
 Ni      3.42162000     -0.71219000      2.25503000
 Ni     -1.42822000     -2.46905000     -0.57250400
 Ni      3.67099000      1.85196000      1.41160000
 Ni      1.23387000      1.19840000     -1.22110000
 Ni     -1.21894000      0.62553400     -3.97761000
 Ni     -3.41489000     -1.10422000     -1.52960000
 Ni      1.76901000      2.55855000      3.00149000
 Ni     -0.55871100      1.38534000      2.86518000
 Ni      2.93588000     -2.64408000      0.52534200
 Ni     -1.28400000     -3.01108000      1.95416000
 Ni     -2.65183000      3.34924000     -0.63574000
 Ni      1.79104000      3.28549000      0.47071000
 Ni     -2.56894000      2.75591000      1.94750000
 Ni     -2.92821000      0.27293300      2.75361000
 Ni      1.13243000      1.83617000     -3.73181000
 Ni     -0.65057800      1.97852000      0.33882700
 Ni     -3.32838000     -1.65926000      1.02030000
 Ni     -0.85871800     -1.10191000      3.70913000
 Ni     -3.08338000      1.42204000     -2.31650000
 Ni      1.02839000     -1.81611000      2.09818000
  C     -1.94665000      4.62108000     -2.15571000
  O     -1.87277000      5.91799000     -2.16791000
  C     -4.85062000     -0.36032400      1.86924000
  O     -6.03933000     -0.47566100      2.47604000
  C     -0.75639600      2.96405000      4.10173000
  O     -0.98508600      3.54635000      5.29281000
  C      4.42825000     -2.76684000     -1.15144000
  O      5.47322000     -3.45945000     -1.62348000
  C     -3.89319000     -0.41479500     -3.34481000
  O     -4.99015000     -0.50768800     -4.15837000
  C      1.83487000      4.22823000      2.12876000
  O      2.35162000      5.32967000      2.58109000
  C     -0.37696100     -5.01000000     -2.03934000
  O     -0.33046200     -6.07857000     -2.79037000
  C      4.26945000     -0.87809800     -3.65890000
  O      5.18045000     -0.86662100     -4.60956000
  C     -2.57890000     -0.53165100      4.56774000
  O     -3.32884000     -0.68239500      5.69201000
  C     -1.46335000      5.23750000      1.22825000
  O     -1.63294000      6.38202000      1.96802000
  C      1.92144000     -2.99401000     -3.93422000
  O      2.51767000     -3.78338000     -4.81255000
  C      1.45194000      0.37228500     -5.02837000
  O      1.89104000      0.41756200     -6.28020000
  C      0.23316700      3.57987000     -3.60470000
  O      0.12446500      4.36554000     -4.62865000
  C     -0.05115910      0.04575000      5.21409000
  O      0.05679210      0.04564010      6.57920000
  C     -0.28632300     -3.14651000      4.10109000
  O     -0.35274300     -3.84541000      5.22411000
  C      2.34780000     -4.66988000     -0.58797100
  O      2.85653000     -5.90088000     -0.56941600
  C     -4.83576000      1.03205000     -0.70024200
  O     -6.13284000      1.32233000     -0.75214600
  C     -1.98903000      1.57425000     -5.59310000
  O     -2.24386000      1.67716000     -6.80329000
  C     -0.47011100     -1.75492000     -4.88354000
  O     -0.55535200     -2.36846000     -6.05100000
  C     -2.91339000     -3.31811000     -2.95312000
  O     -3.55018000     -4.01480000     -3.81181000
  C     -4.18446000      3.64872000      0.88523700
  O     -5.00413000      4.71711000      0.70606700
  C      3.05350000      2.73002000     -3.11870000
  O      3.93489000      3.40875000     -3.78511000
  C      5.01478000      0.58641400     -0.81227100
  O      6.35471000      0.54643300     -0.94357900
  C     -4.74496000     -2.21834000     -0.48075800
  O     -5.96966000     -2.75320000     -0.63242200
  C     -0.33361700     -4.98787000      1.63296000
  O     -0.44454200     -6.26175000      2.01115000
  C     -3.14894000     -3.06418000      2.60924000
  O     -3.94259000     -3.91481000      3.25393000
  C      4.02042000      3.42072000      0.44107200
  O      5.02340000      4.23684000      0.40899200
  C      2.95817000     -1.38796000      4.20331000
  O      3.64163000     -1.66164000      5.33606000
  C      4.70871000      0.84360300      2.74118000
  O      5.93012000      1.19558000      3.24626000
  C     -2.52925000     -4.22409000     -0.14586400
  O     -3.16961000     -5.31972000     -0.34249800
  C      2.51930000      1.87499000      4.68123000
  O      3.15481000      2.49533000      5.68170000
  C      4.81963000     -2.05427000      1.38790000
  O      5.95379000     -2.58388000      1.86772000
  C      1.56883000      5.00582000     -0.60929500
  O      2.09704000      6.14286000     -0.94550400
  C      2.27705000     -3.68585000      2.45271000
  O      2.80755000     -4.61110000      3.23663000
  C     -3.75028000      2.13005000      3.53422000
  O     -4.72366000      2.82319000      4.15878000
  C     -2.90925000      3.48955000     -2.88176000
  O     -3.85598000      3.80592000     -3.70467000

