110
Energy = -11971.15420424 au
 Ni     -1.42341000     -2.13880000     -3.54027000
 Ni      0.27807100      0.69651500     -1.87607000
 Ni     -2.94850000     -2.51392000     -1.46915000
 Ni      3.80030000      1.93315000      0.76066800
 Ni      2.75157000      1.48693000     -1.61465000
 Ni     -0.49435700      2.72545000     -0.50407000
 Ni     -1.18019000      0.35122000      0.20050400
 Ni      2.30568000      1.59247000      2.83187000
 Ni      1.04156000     -1.33935000     -3.28129000
 Ni      1.33943000     -3.30238000     -0.21966100
 Ni     -0.42764900     -1.68136000     -1.18261000
 Ni      0.39055100     -3.72987000     -2.57176000
 Ni      3.82871000     -2.50739000      0.02651390
 Ni     -0.89188500     -1.61718000      3.27735000
 Ni      0.57329900     -1.25019000      1.15500000
 Ni      2.83849000     -2.95489000     -2.31116000
 Ni      4.51600000     -0.12142600     -0.67862400
 Ni     -0.72111000      0.27227400     -4.25061000
 Ni     -0.09659090     -3.67494000      1.88284000
 Ni     -2.17948000     -0.08479170     -2.15044000
 Ni      2.33662000     -2.87467000      2.15810000
 Ni      2.03377000     -0.90746900     -0.91922300
 Ni      1.74487000      1.07579000     -3.97889000
 Ni     -1.49932000      2.31467000     -2.88147000
 Ni      1.56554000     -0.82376600      3.53940000
 Ni     -0.19003000      0.77140800      2.53188000
 Ni     -1.12727000     -4.07757000     -0.49366500
 Ni     -3.67987000     -0.43861900     -0.05038710
 Ni      1.98557000      3.52653000     -0.22702800
 Ni      3.03142000     -0.45498100      1.42228000
 Ni      0.48589900      3.19515000      1.86605000
 Ni     -2.01429000      2.40990000      1.60241000
 Ni      3.53832000     -0.55081200     -3.00110000
 Ni      1.27881000      1.12658000      0.46458300
 Ni     -2.98437000      1.97161000     -0.76243100
 Ni     -2.69202000      0.00182110      2.29925000
 Ni      0.96178900      3.10183000     -2.61690000
 Ni     -1.89441000     -2.04131000      0.88607700
  C     -0.29412800     -1.62062000     -5.22138000
  O     -0.33084400     -1.78190000     -6.49642000
  C     -3.20944000      3.73663000     -2.49901000
  O     -3.70748000      4.43194000     -3.46353000
  C      3.87859000     -1.28124000      3.53850000
  O      4.66655000     -1.73885000      4.47703000
  C     -0.38466600      4.98647000     -2.43572000
  O     -0.11659600      5.87685000     -3.32809000
  C     -1.14346000      4.13276000      2.76713000
  O     -1.30639000      5.25846000      3.43617000
  C      4.87495000     -1.95832000     -1.83261000
  O      5.67923000     -2.63669000     -2.57761000
  C      0.12138000      2.22237000     -4.64373000
  O      0.11226600      2.62050000     -5.87391000
  C      2.03341000     -4.89414000     -1.35384000
  O      2.59472000     -6.00963000     -1.65644000
  C     -3.52185000     -2.32050000     -3.44363000
  O     -4.14666000     -2.96790000     -4.46075000
  C      2.35605000      1.31764000      4.93950000
  O      2.76465000      1.49790000      6.13130000
  C      1.92146000      4.34087000      2.99950000
  O      2.47518000      5.08243000      3.87098000
  C     -4.61303000      0.97261500     -1.76700000
  O     -5.81050000      1.25974000     -2.24406000
  C     -1.54366000      4.77802000     -0.09664860
  O     -1.89618000      5.98730000     -0.14344000
  C     -3.93055000     -2.47276000      1.92140000
  O     -4.90992000     -3.11573000      2.39697000
  C     -4.05576000      3.26678000      0.49089600
  O     -5.05782000      4.09535000      0.45735800
  C     -4.95069000     -1.76159000     -1.05631000
  O     -6.11844000     -2.32244000     -1.33875000
  C     -2.94941000     -0.72129300      4.20365000
  O     -3.63500000     -0.87597400      5.30465000
  C      3.52044000     -4.41862000      1.05982000
  O      4.74809000     -4.91424000      1.27852000
  C     -3.10129000     -4.24420000     -0.42046200
  O     -3.70434000     -5.42613000     -0.47686900
  C      4.28381000      1.44556000      2.62453000
  O      5.36118000      1.88664000      3.17279000
  C      5.20391000     -1.10161000      1.35739000
  O      6.54997000     -1.02032000      1.10649000
  C      4.59106000      1.23489000     -2.42721000
  O      5.84034000      1.27384000     -2.72323000
  C      1.80948000     -3.01480000     -4.09939000
  O      2.26322000     -3.69426000     -5.09382000
  C     -2.69771000      0.60478100     -4.14415000
  O     -3.45858000      0.75418600     -5.16997000
  C      0.05695220     -5.34788000      0.62608000
  O     -0.06239380     -6.60926000      0.89133000
  C     -0.75532600      1.71573000      4.63619000
  O     -0.93384800      2.14628000      5.83527000
  C     -1.51052000     -4.46624000     -2.86821000
  O     -1.39617000     -5.63852000     -3.62567000
  C      0.26962000     -1.50483000      4.87531000
  O      0.30520100     -1.91991000      6.18172000
  C      1.04276000      5.64448000      0.75270800
  O      1.81007000      6.62576000      0.42642400
  C     -1.84713000     -3.72090000      3.21783000
  O     -2.17055000     -4.67039000      4.08069000
  C     -3.35827000      2.47894000      3.21800000
  O     -4.20405000      3.00429000      4.00932000
  C      4.18719000      3.87816000     -1.01517000
  O      5.24691000      4.37886000     -0.47869400
  C      1.25565000     -4.08613000      3.24720000
  O      1.75984000     -5.02737000      4.01894000
  C      3.00695000      3.01305000     -2.97599000
  O      3.63754000      3.81490000     -3.75674000
  C      3.10347000     -0.43479700     -4.93625000
  O      3.71572000     -0.29514800     -6.13024000
  C     -4.90012000      0.37026200      1.59967000
  O     -6.17361000      0.43025500      1.86975000
