110
Energy = -11966.04356875 au
 Ni      0.42533100     -3.44517000     -2.16058000
 Ni     -1.21894000     -0.27574400     -1.16335000
 Ni      0.74277200     -4.11729000      0.30115700
 Ni     -0.58568900      4.13992000     -0.19167200
 Ni     -1.06783000      2.20224000     -1.90625000
 Ni     -2.99423000      0.36421300      0.57916100
 Ni     -0.87946300     -0.89116800      1.29656000
 Ni     -0.25184700      3.46926000      2.27714000
 Ni      0.55026600     -0.92585400     -2.91092000
 Ni      3.16731000     -0.34910900     -0.46751500
 Ni      0.89109400     -1.56170000     -0.44425500
 Ni      2.69421000     -2.20119000     -2.20454000
 Ni      3.32839000      2.15284000     -1.22669000
 Ni      1.76807000     -0.31825300      3.76283000
 Ni      1.38583000      0.30190100      1.27173000
 Ni      2.84775000      0.28712600     -2.96490000
 Ni      1.20457000      3.42809000     -1.94132000
 Ni     -1.73055000     -2.13965000     -2.90967000
 Ni      3.53845000     -0.96062500      2.02308000
 Ni     -1.36276000     -2.75136000     -0.41900800
 Ni      3.68652000      1.51090000      1.27847000
 Ni      1.04519000      0.91596500     -1.18871000
 Ni     -1.57558000      0.34996400     -3.66423000
 Ni     -3.51531000     -1.49558000     -1.16308000
 Ni      1.89350000      2.17175000      3.01988000
 Ni     -0.38776200      0.95853700      3.01286000
 Ni      3.01101000     -2.85169000      0.26124100
 Ni     -1.03578000     -3.40109000      2.05176000
 Ni     -2.83916000      2.87981000     -0.15765700
 Ni      1.53114000      2.78439000      0.52891500
 Ni     -2.51871000      2.23732000      2.31842000
 Ni     -2.68005000     -0.27733900      3.06614000
 Ni      0.69513900      1.55146000     -3.68365000
 Ni     -0.72509900      1.58709000      0.55122400
 Ni     -3.16769000     -2.11202000      1.34734000
 Ni     -0.55216800     -1.52998000      3.78301000
 Ni     -3.37202000      0.99678300     -1.91064000
 Ni      1.24211000     -2.17184000      2.01158000
  C      4.51662000     -1.78004000     -1.56493000
  O      5.59802000     -2.29312000     -2.04785000
  C     -1.93639000     -0.43703500      4.94916000
  O     -2.77180000     -0.57922500      6.05119000
  C     -5.22948000     -0.08237430     -1.20943000
  O     -6.41387000     -0.46969400     -1.59013000
  C     -3.77990000     -3.58665000     -0.08588510
  O     -4.83518000     -4.39629000      0.15229300
  C     -0.47668700      4.60985000     -2.48326000
  O     -0.30222600      5.76871000     -3.17685000
  C      2.25565000     -4.56648000     -0.97082100
  O      2.63465000     -5.79744000     -1.04826000
  C      1.50769000     -4.19522000      2.24297000
  O      1.90322000     -5.26307000      2.83930000
  C      3.87177000      3.56055000      0.96285400
  O      4.98290000      4.12544000      1.33159000
  C     -4.58613000     -0.72690300      1.89521000
  O     -5.76635000     -0.92782300      2.36479000
  C      0.33604600     -3.29814000      4.38623000
  O      0.30003200     -3.75283000      5.61295000
  C      3.03863000      4.12153000     -1.36154000
  O      3.72143000      5.09937000     -1.85241000
  C     -2.77344000     -2.93302000      3.13856000
  O     -3.45828000     -3.74481000      3.86834000
  C      0.29131700     -0.06186670     -4.97922000
  O      0.37361100     -0.09717330     -6.26224000
  C     -1.07409000     -5.11514000      0.78503500
  O     -1.41854000     -6.30253000      1.31643000
  C     -4.10206000      1.48196000      3.60748000
  O     -4.91780000      2.21519000      4.30170000
  C      2.44202000      2.75138000     -3.89458000
  O      2.79516000      3.23159000     -5.09993000
  C      3.02887000     -1.88084000      3.84371000
  O      3.90720000     -2.30585000      4.68176000
  C      4.97424000      0.01656820      1.03655000
  O      6.22330000      0.00692658      1.34801000
  C     -0.45930100     -2.74547000     -4.37764000
  O     -0.71294700     -3.50823000     -5.47568000
  C     -2.27350000      4.76589000     -1.08344000
  O     -3.15644000      5.76071000     -1.17888000
  C     -3.48387000     -0.60781200     -4.21879000
  O     -3.97829000     -0.61494100     -5.42206000
  C     -1.25515000      2.40103000     -4.18958000
  O     -1.58663000      3.03428000     -5.25734000
  C      1.45351000      4.21432000      2.97187000
  O      1.90471000      5.01310000      3.88758000
  C      1.74260000     -3.45322000     -3.69477000
  O      2.49594000     -4.28557000     -4.51515000
  C      4.69224000     -2.81747000      1.57970000
  O      5.51920000     -3.79319000      1.54435000
  C      0.52919200      0.35076700      5.44563000
  O      1.05270000      0.42247000      6.63078000
  C     -4.62969000      2.06679000      0.45544600
  O     -5.78985000      2.74313000      0.52330200
  C      3.52801000      1.15911000      3.54605000
  O      4.34626000      1.54510000      4.46734000
  C      3.25591000     -0.93373000     -4.65514000
  O      4.22585000     -0.86989000     -5.61418000
  C      1.07465000      5.04624000      0.69837100
  O      1.07533000      6.37968000      0.71746800
  C     -1.15249000     -4.81734000     -1.64924000
  O     -1.25932000     -5.96108000     -2.23222000
  C     -0.74173500      2.43538000      4.29077000
  O     -0.93479800      3.05414000      5.41976000
  C      4.96421000      0.93709900     -1.88920000
  O      6.03062000      1.52803000     -2.30030000
  C     -2.18111000      4.32795000      1.94252000
  O     -2.49729000      5.41259000      2.56537000
  C     -3.87696000      2.93320000     -2.90941000
  O     -4.96731000      3.20441000     -3.52556000
  C     -3.60873000     -3.02530000     -2.43180000
  O     -4.40666000     -3.73969000     -3.28837000
