110
Energy = -12614.31483705 au
 Ni      0.82893300     -3.55521000     -1.95448000
 Ni     -0.11275800      0.09596900     -1.90098000
 Ni     -1.06479000     -4.05277000     -0.26562900
 Ni      0.64314500      4.20752000      0.11993700
 Ni      1.34918000      2.49525000     -1.90871000
 Ni     -2.72309000      1.45947000     -2.06531000
 Ni     -1.90755000     -0.44549700     -0.12745500
 Ni     -1.21237000      3.66990000      1.87461000
 Ni      2.20119000     -1.20332000     -1.87935000
 Ni      2.11512000     -1.33714000      1.86307000
 Ni      0.32620800     -1.75184000     -0.10522700
 Ni      2.66560000     -3.15161000     -0.10317500
 Ni      3.36411000      1.01321000      1.93198000
 Ni     -2.06348000     -0.67165300      3.63665000
 Ni     -0.18250000     -0.00266169      1.75743000
 Ni      3.93827000     -0.74815800      0.00697511
 Ni      2.99638000      2.82932000      0.03220450
 Ni      0.33840500     -1.72757000     -3.78577000
 Ni      0.27894100     -1.83362000      3.62978000
 Ni     -1.48594000     -2.38254000     -2.19590000
 Ni      1.51187000      0.59502300      3.74613000
 Ni      1.62403000      0.53982000     -0.00640935
 Ni      1.73303000      0.68644100     -3.67950000
 Ni     -2.01669000     -0.29722000     -3.93183000
 Ni     -0.71004900      1.73631000      3.71919000
 Ni     -2.48063000      1.38570000      1.80065000
 Ni      0.79189200     -3.56198000      1.75403000
 Ni     -3.27863000     -2.74416000     -0.22857100
 Ni     -0.93414600      3.70581000     -1.88052000
 Ni      1.09077000      2.53216000      2.01162000
 Ni     -2.93243000      3.10851000     -0.17727600
 Ni     -4.19194000      0.82562800     -0.03780890
 Ni      3.48576000      1.12111000     -1.85745000
 Ni     -0.61276300      1.83127000     -0.03193400
 Ni     -3.68981000     -0.98014600     -1.94655000
 Ni     -3.80770000     -0.90268100      1.67627000
 Ni     -0.58907300      2.05844000     -3.72504000
 Ni     -1.54132000     -2.33977000      1.82157000
  C     -4.24343000     -1.83125000      3.33512000
  O     -5.38849000     -2.17619000      3.88497000
  C      1.06763000      2.52559000      3.92702000
  O      1.49305000      3.43822000      4.76579000
  C      1.09957000     -0.56017900     -5.25413000
  O      1.53562000     -0.80956600     -6.50846000
  C      2.70290000     -2.55854000     -3.35164000
  O      3.70757000     -3.04220000     -4.08264000
  C     -1.15331000      1.37912000     -5.44700000
  O     -1.44592000      1.90769000     -6.62344000
  C      1.84204000     -2.84738000      4.03620000
  O      2.33300000     -3.35848000      5.15954000
  C      2.65474000     -4.37269000      1.70410000
  O      3.21355000     -5.53288000      2.08064000
  C     -2.45972000      0.65736400      4.96900000
  O     -3.10216000      0.71081300      6.11253000
  C      2.35807000      4.75679000     -0.80254400
  O      2.83723000      6.04123000     -0.85941400
  C     -3.42029000     -2.83947000     -2.15981000
  O     -4.10850000     -3.66607000     -2.90809000
  C     -3.81395000      0.36737800     -3.27673000
  O     -4.86919000      0.66207400     -3.91674000
  C     -0.73805600     -4.87542000      1.85364000
  O     -0.89295400     -6.08151000      2.48900000
  C     -1.45692000     -5.12091000     -1.91019000
  O     -1.76664000     -6.39309000     -1.88323000
  C     -2.91961000      4.25799000      1.29406000
  O     -3.73835000      5.34320000      1.62784000
  C     -1.97308000      3.22029000      3.70940000
  O     -2.47956000      3.96560000      4.75570000
  C     -2.44631000      3.13193000     -2.88078000
  O     -3.30709000      3.78380000     -3.60610000
  C     -1.54356000     -2.51302000      3.87266000
  O     -1.95872000     -3.40146000      4.68684000
  C     -3.35655000     -4.11801000      1.20007000
  O     -4.32554000     -4.99988000      1.37850000
  C      3.53573000      3.25239000      2.07824000
  O      4.40533000      4.18332000      2.53873000
  C      4.48408000     -2.59715000     -0.60257500
  O      5.66884000     -3.30258000     -0.67758500
  C      3.48772000      0.61290800      4.08448000
  O      4.33803000      0.84089300      5.09309000
  C      4.05296000      2.81324000     -1.46050000
  O      5.00818000      3.54410000     -1.89681000
  C      0.17272400     -0.08417270      5.25907000
  O      0.43297200     -0.05102360      6.59999000
  C     -1.16985000      5.28995000     -0.80820100
  O     -1.40577000      6.55646000     -1.22672000
  C      2.14341000     -4.97393000     -0.97758600
  O      2.69169000     -6.09058000     -1.47055000
  C     -4.83689000     -1.04646000     -0.29174300
  O     -6.11182000     -1.31361000     -0.37852000
  C      4.08070000     -1.69581000      2.24297000
  O      4.94958000     -2.26963000      3.06028000
  C      0.51405800      3.56741000     -3.25736000
  O      1.05412000      4.52411000     -3.98095000
  C     -0.19545400     -3.51957000     -3.54549000
  O     -0.41156200     -4.43794000     -4.44833000
  C     -4.35342000      1.20143000      1.95967000
  O     -5.21725000      1.76801000      2.71992000
  C      5.01717000      0.75875300      0.71972700
  O      6.36210000      0.89876700      0.96686300
  C      0.25795600      4.78599000      1.85372000
  O      0.40646800      5.93844000      2.47512000
  C      3.04522000      2.01724000     -4.16989000
  O      3.62973000      2.35048000     -5.30844000
  C     -4.54843000      2.45692000     -0.82991100
  O     -5.68988000      3.01519000     -1.11021000
  C      4.67359000     -0.32795500     -2.35780000
  O      5.84195000     -0.41405800     -3.01298000
  C     -2.17238000     -1.85634000     -5.00272000
  O     -2.64213000     -2.12139000     -6.21335000
