#B3LYP/6-31+G(d) OPT FREQ

110, Energy = -12191.06229498 au

0 1
 Ni      3.41654000     -0.51603200      2.40513000
 Ni      1.35796000      1.45667000     -0.26502400
 Ni      2.56394000     -2.72521000      1.33024000
 Ni     -2.58243000      3.45879000     -1.22771000
 Ni     -0.21711600      3.63702000     -0.32292300
 Ni      1.04904000      1.18354000     -2.87306000
 Ni      0.56196400     -0.82628200     -1.28954000
 Ni     -3.35748000      1.17975000     -2.37148000
 Ni      1.65492000      1.66992000      2.32044000
 Ni     -1.24880000     -0.48343200      2.89188000
 Ni      0.86252900     -0.58849300      1.30617000
 Ni      1.12593000     -0.34925300      3.98277000
 Ni     -2.87933000      1.60318000      2.95135000
 Ni     -2.35703000     -3.07958000     -0.78686500
 Ni     -1.53227000     -0.75737400      0.24699900
 Ni     -0.45006000      1.76934000      3.86518000
 Ni     -2.29405000      3.65068000      1.34397000
 Ni      3.86504000      1.59235000      0.78700500
 Ni     -2.09672000     -2.93589000      1.89933000
 Ni      3.09337000     -0.72571000     -0.25187100
 Ni     -3.58410000     -0.69924200      1.82665000
 Ni     -0.73625500      1.50306000      1.27353000
 Ni      2.20629000      3.69829000      0.74862500
 Ni      3.54328000      1.40566000     -1.79832000
 Ni     -4.00106000     -0.89779300     -0.80230000
 Ni     -1.82948000     -0.99822900     -2.38415000
 Ni      0.26730700     -2.70725000      2.88781000
 Ni      2.34615000     -2.99726000     -1.26975000
 Ni     -0.50148100      3.41250000     -2.93085000
 Ni     -3.08714000      1.35254000      0.22746000
 Ni     -1.27799000      1.03912000     -3.95729000
 Ni      0.33680100     -1.08120000     -3.89214000
 Ni      0.05687620      3.70920000      2.29599000
 Ni     -1.00098000      1.30486000     -1.30775000
 Ni      2.72976000     -0.92903300     -2.90747000
 Ni     -0.26604200     -3.26966000     -2.41725000
 Ni      1.81351000      3.55280000     -1.84498000
 Ni      0.06206430     -2.89430000      0.28044300
  C     -3.66379000      0.82268400      4.53840000
  O     -4.52366000      1.20704000      5.41216000
  C     -2.82565000      3.42458000     -3.25767000
  O     -3.59769000      4.41100000     -3.84832000
  C      0.98139200      5.35779000      1.41362000
  O      1.20614000      6.48654000      2.14398000
  C      4.70164000     -0.02097270     -2.93873000
  O      5.80844000     -0.05403700     -3.66932000
  C      5.09021000      2.54188000     -0.65425200
  O      6.31649000      3.00132000     -0.82842100
  C     -0.44932200     -4.82358000     -0.69814600
  O     -0.35842900     -6.14737000     -0.55994100
  C     -5.51491000     -1.76035000     -1.58239000
  O     -6.73152000     -2.03834000     -1.79418000
  C     -1.46989000     -4.58015000      2.70226000
  O     -1.92578000     -5.65852000      3.27752000
  C     -3.60583000     -4.34793000     -0.18231100
  O     -4.23537000     -5.41383000     -0.53036300
  C     -0.50245900      2.64283000     -5.06171000
  O     -0.55867200      3.07687000     -6.31333000
  C      1.25437000      2.76877000      4.45136000
  O      1.77367000      3.46694000      5.45977000
  C      1.87732000      0.02198950     -4.96069000
  O      2.39669000      0.18471000     -6.17538000
  C      2.73158000     -2.81768000     -3.65229000
  O      3.43938000     -3.48568000     -4.55024000
  C     -0.01083500     -4.35866000     -3.87417000
  O     -0.01916120     -5.47641000     -4.48959000
  C      2.77880000      5.09513000     -0.60781700
  O      3.45941000      6.23423000     -0.70554600
  C     -0.99045600     -1.59124000     -5.13920000
  O     -1.09924000     -1.81459000     -6.41349000
  C     -5.00343000      0.54046300      1.37804000
  O     -6.28661000      0.79440200      1.69307000
  C      4.09452000     -2.61045000      2.79939000
  O      5.03855000     -3.31180000      3.38836000
  C      2.69011000      2.85133000     -3.59563000
  O      3.36638000      3.44570000     -4.60214000
  C     -1.69149000      3.60831000      3.29561000
  O     -2.06369000      4.48901000      4.17186000
  C      0.39058100      5.29136000     -2.60199000
  O      0.45729600      6.30269000     -3.45641000
  C     -2.77510000     -2.85257000     -3.04096000
  O     -3.51666000     -3.36922000     -4.02641000
  C     -4.13249000      3.44750000      1.13943000
  O     -5.19524000      4.25602000      1.26645000
  C      2.61299000     -5.11425000     -0.58098100
  O      3.49784000     -5.95935000     -0.97848400
  C      3.16374000      0.21141000      4.27558000
  O      3.93847000      0.20120500      5.39536000
  C     -1.68987000      4.82679000     -0.05647250
  O     -1.79023000      6.12129000     -0.08473420
  C     -4.28811000     -2.61028000      1.96504000
  O     -5.35408000     -3.22005000      2.48842000
  C      1.00758000     -2.41229000      4.78311000
  O      1.28129000     -3.11154000      5.88024000
  C     -2.20560000     -1.92549000      4.04682000
  O     -2.70891000     -2.18789000      5.25324000
  C      5.22279000     -0.04378570      1.82098000
  O      6.45667000      0.02610490      2.31587000
  C     -4.95727000      1.62743000     -1.40507000
  O     -6.15821000      2.14864000     -1.66179000
  C     -0.28953400      0.15519400      5.45035000
  O     -0.39785700      0.27674900      6.77715000
  C      3.88501000      2.68160000      2.44342000
  O      4.67220000      3.61504000      3.01243000
  C      4.58033000     -2.12523000     -0.60112800
  O      5.85667000     -2.41134000     -0.66233900
  C     -3.25237000      0.33275100     -4.12418000
  O     -4.07196000      0.24747500     -5.09893000
  C      1.40545000     -4.43137000      2.07500000
  O      1.75125000     -5.63784000      2.54555000

