110
Energy = -12571.79185368 au
 Ni     -3.40220000     -2.16270000     -0.94421400
 Ni     -1.18057000      0.86091700     -0.96344100
 Ni     -2.60963000     -2.89655000      1.27110000
 Ni      2.99421000      2.60928000     -2.23834000
 Ni      0.46056900      2.26634000     -2.84342000
 Ni     -0.65947700      2.73616000      0.87007100
 Ni     -0.30652100      0.13714700      1.37918000
 Ni      3.81358000      1.85895000      0.27699100
 Ni     -1.77867000     -1.10106000     -2.80534000
 Ni      1.01096000     -3.23762000     -1.62566000
 Ni     -0.88193600     -1.67270000     -0.40987100
 Ni     -1.48517000     -3.62624000     -2.22194000
 Ni      2.56789000     -1.93623000     -3.30217000
 Ni      2.54700000     -1.93649000      2.46954000
 Ni      1.60282000     -1.20359000      0.18043600
 Ni      0.15700200     -2.42605000     -3.92777000
 Ni      2.20655000      0.75154000     -3.90531000
 Ni     -3.73510000      0.36353900     -1.60149000
 Ni      1.91821000     -3.76963000      0.70554600
 Ni     -2.86880000     -0.30703400      0.76924600
 Ni      3.62847000     -2.54820000     -0.97169000
 Ni      0.72196400     -0.47248700     -2.10959000
 Ni     -2.04290000      1.57164000     -3.29686000
 Ni     -3.22273000      2.27404000      0.34168500
 Ni      4.16158000     -0.76514100      0.76454100
 Ni      2.15363000      0.63614300      2.06304000
 Ni     -0.71748400     -4.24560000      0.01691430
 Ni     -1.90805000     -1.13696000      3.20075000
 Ni      0.97825100      3.92463000     -0.88038100
 Ni      3.48453000      0.01542240     -1.75625000
 Ni      1.85238000      3.18685000      1.52829000
 Ni      0.23456000      1.92226000      3.32145000
 Ni     -0.13959700      0.17972800     -4.42217000
 Ni      1.31200000      1.32317000     -0.36433500
 Ni     -2.35741000      1.62807000      2.54903000
 Ni      0.49835600     -0.58989000      3.89559000
 Ni     -1.59146000      3.44400000     -1.46610000
 Ni     -0.00854237     -2.47433000      1.94964000
  C     -0.51361300      0.10690700      5.38388000
  O     -0.56000900      0.09010360      6.68173000
  C      4.89771000      0.47277200     -0.51214200
  O      6.15504000      0.61649700     -0.80817200
  C      3.80960000      3.00996000      2.03831000
  O      4.72535000      3.82513000      2.62619000
  C     -5.32447000      0.63827000     -0.62968800
  O     -6.60170000      0.75192000     -0.84687100
  C     -1.85054000      2.31800000      4.35014000
  O     -2.40206000      2.89178000      5.40197000
  C      1.56280000     -1.17074000     -4.86985000
  O      1.92395000     -1.44528000     -6.08760000
  C      2.76847000     -4.05820000      2.53917000
  O      3.42578000     -4.97451000      3.26113000
  C     -2.59617000     -3.72197000      2.98952000
  O     -3.36618000     -4.68814000      3.42363000
  C      4.50111000      0.04841580      2.47610000
  O      5.56035000      0.20976900      3.28398000
  C      2.58419000     -1.10680000      4.35039000
  O      3.22395000     -1.39751000      5.50022000
  C     -3.86719000      3.62057000     -0.97651300
  O     -4.90630000      4.42701000     -1.12980000
  C     -3.99164000      1.34608000     -3.47662000
  O     -4.94270000      1.60406000     -4.39492000
  C     -0.43576500     -5.09306000     -1.64803000
  O     -0.55048800     -6.34453000     -1.94722000
  C     -4.70361000      1.56982000      2.04348000
  O     -5.72217000      1.99956000      2.71093000
  C      2.55040000     -4.95109000     -0.66797900
  O      3.31033000     -6.03759000     -0.83305800
  C      1.56106000     -3.57720000     -3.40177000
  O      1.90010000     -4.70214000     -3.95775000
  C     -0.11408900     -2.84306000      4.11705000
  O     -0.20183200     -3.78712000      5.04761000
  C      0.77421000      1.81510000     -4.71772000
  O      0.79640400      2.46561000     -5.83954000
  C     -1.61737000      3.67307000     -3.52867000
  O     -2.02776000      4.62497000     -4.41897000
  C     -3.79708000     -0.76314300      4.47043000
  O     -4.42215000     -1.16422000      5.52300000
  C     -2.93018000     -4.04192000     -0.64623600
  O     -3.80989000     -4.98722000     -0.76787200
  C     -4.10704000     -1.50462000     -3.00419000
  O     -5.11430000     -2.14309000     -3.63149000
  C     -0.35745900     -5.06140000      1.75841000
  O     -0.16776200     -6.30067000      2.16791000
  C      0.46966600      4.02800000      2.99600000
  O      0.48902300      5.12628000      3.77815000
  C     -0.97082500      5.13149000     -0.73302200
  O     -1.30100000      6.42282000     -0.92293600
  C     -2.45906000      3.91912000      1.93828000
  O     -2.97695000      5.07069000      2.33081000
  C      4.81921000     -2.46987000      0.44300700
  O      5.92399000     -3.07183000      0.70652800
  C      1.90317000      1.87938000      4.31160000
  O      2.45565000      2.34644000      5.41167000
  C     -4.67875000     -1.75727000      1.02330000
  O     -5.91812000     -1.95549000      1.46392000
  C      4.19675000      3.52927000     -0.97494000
  O      5.28001000      4.26899000     -1.32508000
  C     -1.92093000     -0.17399100     -5.10319000
  O     -2.32487000     -0.41894600     -6.37084000
  C      3.85371000      1.51810000     -3.49793000
  O      4.77475000      1.75054000     -4.37419000
  C     -1.56758000     -3.12673000     -4.02052000
  O     -2.10771000     -3.79188000     -4.98740000
  C      4.28637000     -1.80356000     -2.56611000
  O      5.36926000     -2.11994000     -3.20357000
  C      1.62417000      3.86666000     -2.66846000
  O      1.77429000      4.92446000     -3.40773000
  C      1.86850000      5.04259000      0.50098200
  O      2.31030000      6.30504000      0.65421600
