#B3LYP/6-31+G(d) OPT FREQ

110, Energy = -12739.48319386 au

0 1
 Ni     -0.15862100     -3.77703000     -2.11634000
 Ni     -1.64902000     -0.38041700     -1.17770000
 Ni     -0.14291600     -4.31123000      0.47257100
 Ni     -0.70648600      4.00048000     -0.19819700
 Ni     -1.01476000      2.08090000     -2.02140000
 Ni     -3.98248000      0.63251000      0.43867800
 Ni     -1.54221000     -0.90837100      1.29507000
 Ni     -0.49848300      3.51075000      2.23058000
 Ni      0.23146900     -1.21650000     -2.82234000
 Ni      2.79029000     -0.87745800     -0.15786200
 Ni      0.28759800     -1.87444000     -0.30445400
 Ni      2.16751000     -2.70641000     -1.89074000
 Ni      3.43951000      1.63795000     -0.96511400
 Ni      1.02886000     -0.53060000      4.09522000
 Ni      0.90212300      0.04705340      1.46331000
 Ni      2.73728000     -0.24371800     -2.76262000
 Ni      1.41170000      3.07613000     -1.93952000
 Ni     -2.11223000     -2.25815000     -3.05144000
 Ni      2.88148000     -1.42907000      2.43034000
 Ni     -2.22919000     -3.28121000     -0.57031600
 Ni      3.41168000      0.97357600      1.64172000
 Ni      0.85372600      0.59809100     -1.08129000
 Ni     -1.64852000      0.25401600     -3.76778000
 Ni     -4.10232000     -1.41949000     -1.45025000
 Ni      1.70863000      1.83293000      3.23012000
 Ni     -0.94089900      1.28863000      3.43875000
 Ni      2.35330000     -3.39852000      0.63738900
 Ni     -2.00190000     -3.30784000      2.11091000
 Ni     -2.95562000      3.00309000     -0.43394400
 Ni      1.45521000      2.52431000      0.66691000
 Ni     -2.94966000      2.52433000      2.22889000
 Ni     -3.36678000     -0.10265500      2.90722000
 Ni      0.87196300      1.19959000     -3.66035000
 Ni     -1.06201000      1.51442000      0.57159600
 Ni     -3.94511000     -2.00334000      1.19665000
 Ni     -1.47248000     -1.42556000      3.90944000
 Ni     -3.53036000      1.13121000     -2.20080000
 Ni      0.41877300     -2.40788000      2.20586000
  C     -3.58223000     -2.10307000      3.19010000
  O     -4.42634000     -2.60903000      4.03581000
  C     -3.42938000     -3.78793000      0.85119600
  O     -4.18073000     -4.84768000      0.83997400
  C     -2.29307000      0.30350500      4.40072000
  O     -2.73510000      0.75544400      5.53753000
  C     -1.21542000     -4.88198000     -0.99121900
  O     -1.58587000     -6.09929000     -1.25882000
  C      5.24122000      1.20519000     -0.64414900
  O      6.38158000      1.71296000     -0.97740200
  C      2.88736000     -0.02629650      3.83636000
  O      3.69907000     -0.04144910      4.85046000
  C      0.32878600      2.97472000     -4.17606000
  O      0.30267500      3.72002000     -5.29205000
  C      1.24130000     -5.01046000      1.74669000
  O      1.44442000     -6.30080000      2.10000000
  C      0.55434000      1.25039000      4.63435000
  O      0.60309900      1.66117000      5.86769000
  C      1.56177000      3.76458000      3.15998000
  O      2.08627000      4.74299000      3.94001000
  C     -3.49003000     -3.12710000     -2.01792000
  O     -4.18592000     -4.15090000     -2.41764000
  C     -0.95270100     -3.89313000      3.73322000
  O     -1.12640000     -5.07558000      4.36346000
  C     -5.09720000     -0.94454200      0.14482000
  O     -6.39136000     -1.00087000      0.25541700
  C     -4.41293000      1.30413000      2.20589000
  O     -5.61084000      1.60042000      2.62082000
  C     -2.18230000     -1.37774000     -4.86834000
  O     -2.73009000     -1.62568000     -6.08452000
  C      2.36097000     -2.24566000     -3.89634000
  O      2.84532000     -2.82881000     -5.00587000
  C      2.30473000     -2.94543000      3.56521000
  O      2.73011000     -3.85300000      4.45371000
  C      3.33751000      0.89745900     -4.15030000
  O      4.28942000      1.02003000     -5.03554000
  C     -0.54607000     -3.60839000     -4.07043000
  O     -0.51655400     -4.56264000     -5.01698000
  C      4.73432000     -0.80654100      1.60218000
  O      6.05421000     -1.06057000      1.84610000
  C     -0.10257200     -1.74536000      5.26427000
  O     -0.11196300     -2.17493000      6.56090000
  C     -0.22202200      5.15427000      1.31004000
  O     -0.30213600      6.49095000      1.61367000
  C     -2.42709000      4.05992000     -1.99193000
  O     -2.92222000      4.99720000     -2.86917000
  C     -1.79105000      3.12076000      3.58996000
  O     -2.11127000      3.97774000      4.52113000
  C      4.30567000     -1.55052000     -1.81940000
  O      5.58750000     -1.93765000     -1.98091000
  C      2.04302000     -4.69986000     -1.41584000
  O      2.73855000     -5.76781000     -1.92433000
  C      2.82860000      3.89630000      0.05485580
  O      3.42001000      5.01142000      0.44587800
  C      4.22608000     -3.39308000      0.83426800
  O      5.12007000     -4.32619000      0.97283900
  C     -4.59968000     -0.35870900     -3.05646000
  O     -5.80630000     -0.31903200     -3.71152000
  C      0.38047900      4.84578000     -1.83613000
  O      0.54923900      6.08404000     -2.33893000
  C     -2.94507000      4.03795000      1.14316000
  O     -3.74551000      5.03896000      1.35449000
  C      3.26736000      3.09766000     -2.67699000
  O      4.05748000      3.98021000     -3.29699000
  C      0.48898800     -0.05201520     -5.08739000
  O      0.72369700     -0.22468100     -6.39678000
  C      4.16723000      2.53905000      2.41277000
  O      5.30362000      2.91443000      2.93273000
  C     -2.67275000      1.91004000     -4.17167000
  O     -3.16877000      2.50949000     -5.27704000
  C     -4.52036000      1.96693000     -0.80748900
  O     -5.72961000      2.42946000     -0.94407300

