#B3LYP/6-31+G(d) OPT FREQ

110, Energy = -12698.90258091 au

0 1
 Ni      0.40929200     -3.30716000     -2.13919000
 Ni     -1.33640000     -0.22688800     -0.95118100
 Ni      0.95128700     -4.00131000      0.39518400
 Ni     -0.80756300      4.28098000      0.08692980
 Ni     -1.45874000      2.31636000     -1.90027000
 Ni     -3.01204000      0.30597600      0.94129100
 Ni     -0.74030700     -0.81171500      1.48497000
 Ni     -0.31751700      3.61702000      2.42130000
 Ni      0.31968100     -0.82079100     -2.94808000
 Ni      3.38809000     -0.07067900     -0.69016600
 Ni      0.90387500     -1.39334000     -0.42885900
 Ni      2.68680000     -1.95467000     -2.36259000
 Ni      3.15272000      2.44015000     -1.48994000
 Ni      1.98857000     -0.11934700      3.73705000
 Ni      1.45500000      0.50060500      1.23748000
 Ni      2.60750000      0.63062300     -3.11338000
 Ni      0.78715900      3.63304000     -2.05400000
 Ni     -1.90755000     -2.15602000     -2.64470000
 Ni      3.80282000     -0.60827400      1.69303000
 Ni     -1.36714000     -2.78841000     -0.10739900
 Ni      3.74139000      1.92029000      1.02500000
 Ni      0.86570600      1.09894000     -1.18798000
 Ni     -2.03351000      0.42067400     -3.44853000
 Ni     -3.59143000     -1.60517000     -0.72750100
 Ni      2.03971000      2.44460000      2.95748000
 Ni     -0.15097600      1.12093000      3.37873000
 Ni      3.18112000     -2.52099000      0.09765280
 Ni     -0.73983000     -3.42684000      2.31265000
 Ni     -2.98698000      2.89168000      0.22179500
 Ni      1.51093000      3.19069000      0.51717200
 Ni     -2.43883000      2.25859000      2.60303000
 Ni     -2.36873000     -0.32376000      3.51482000
 Ni      0.35563500      1.79258000     -3.65603000
 Ni     -0.78767300      1.68282000      0.72105500
 Ni     -2.91542000     -2.24041000      1.80738000
 Ni     -0.10044500     -1.52688000      3.97414000
 Ni     -3.65814000      0.98163900     -1.63154000
 Ni      1.53328000     -2.15460000      2.14263000
  C      0.29482800     -2.12447000     -4.43317000
  O      0.41668400     -2.47480000     -5.68955000
  C     -3.17525000     -1.25236000     -3.85199000
  O     -3.98491000     -1.64485000     -4.89084000
  C     -0.50760800     -5.09137000     -0.37522300
  O     -0.67890000     -6.42809000     -0.39527000
  C      0.56163400      2.88327000      4.01958000
  O      0.63110200      3.39869000      5.21333000
  C      4.08680000     -2.46623000      2.41368000
  O      5.18722000     -2.88955000      3.08829000
  C      3.55361000      1.18278000      3.88206000
  O      4.23206000      1.35254000      5.04424000
  C      0.92601000      5.03875000     -0.35229400
  O      1.50939000      6.08450000     -0.83078800
  C     -2.17001000      1.94114000      4.61949000
  O     -2.85433000      2.71909000      5.49674000
  C      0.95672300     -4.25312000      2.24561000
  O      1.39165000     -5.29904000      2.88753000
  C     -2.39476000     -4.03029000      1.69859000
  O     -3.03939000     -5.12912000      1.95685000
  C      2.07728000     -4.27471000     -2.45335000
  O      2.35241000     -5.36363000     -3.18719000
  C     -5.02643000     -0.42421000     -1.37352000
  O     -6.34816000     -0.53943700     -1.76561000
  C     -4.84159000     -1.70312000      1.24550000
  O     -5.97820000     -2.27690000      1.69712000
  C      2.25545000      3.04952000     -3.12441000
  O      2.82417000      3.86172000     -3.96516000
  C     -4.50159000      1.24287000      1.90166000
  O     -5.77589000      1.34963000      2.25828000
  C      3.91526000      3.58278000      0.19271900
  O      4.90612000      4.28213000     -0.34963200
  C      4.56751000     -1.62008000     -0.59073500
  O      5.79903000     -1.87991000     -0.78817700
  C     -2.60699000      3.94793000      1.74754000
  O     -3.42607000      4.88513000      2.13077000
  C     -1.36052000     -4.02858000     -2.92923000
  O     -1.76053000     -5.03656000     -3.76673000
  C      3.80724000     -1.68601000     -3.84901000
  O      4.65937000     -2.34776000     -4.60110000
  C      5.08287000      0.69874700      1.33359000
  O      6.32168000      0.93826500      1.60913000
  C      4.22550000      1.01213000     -2.22939000
  O      5.43075000      1.06651000     -2.70661000
  C     -3.57892000     -3.49968000     -1.21368000
  O     -4.54285000     -4.39105000     -1.45276000
  C     -0.48808300      3.45925000     -3.49177000
  O     -0.81959800      4.28443000     -4.45222000
  C      3.29668000      3.66354000      1.72528000
  O      3.66607000      4.55303000      2.57823000
  C      2.94463000     -4.49472000      0.10431600
  O      3.81884000     -5.52880000      0.15903400
  C      1.85234000      0.61379800     -5.01952000
  O      2.54816000      0.83039800     -6.13563000
  C     -0.86179700      0.67192100     -5.05197000
  O     -1.13304000      0.85353800     -6.37525000
  C     -2.21943000      4.58706000     -1.46538000
  O     -2.55181000      5.82122000     -1.79371000
  C     -3.25443000      1.74274000     -3.26288000
  O     -3.99627000      2.31302000     -4.13403000
  C     -1.19907000     -3.04207000      4.11256000
  O     -1.50856000     -3.75404000      5.07286000
  C      1.73977000     -1.91817000      4.17547000
  O      2.31113000     -2.58620000      5.14267000
  C     -0.16287900      0.04445120      4.97420000
  O     -0.22455200      0.24415900      6.25394000
  C      0.27597200      5.32249000      1.26916000
  O      0.15565800      6.30377000      2.10294000
  C     -3.76475000     -1.36111000      4.27091000
  O     -4.44636000     -1.47658000      5.36824000
  C     -4.61334000      2.62580000     -0.96424400
  O     -5.75476000      3.33263000     -1.17829000

