110
Energy = -12502.30058308 au
 Ni      2.71975000     -2.61273000     -0.04934330
 Ni      0.45849000     -0.16072000     -1.71482000
 Ni      0.66506900     -3.73673000      1.24680000
 Ni     -1.36423000      3.98569000     -1.58090000
 Ni      0.63577700      2.48218000     -2.33998000
 Ni     -1.89976000     -0.33488400     -2.96651000
 Ni     -1.58062000     -1.17472000     -0.51926500
 Ni     -3.49221000      2.88843000     -0.25240600
 Ni      2.81130000     -0.03937900     -0.51867800
 Ni      1.06265000      0.63801300      2.63648000
 Ni      0.69952100     -1.04152000      0.69815300
 Ni      3.03489000     -0.87892300      2.01085000
 Ni      1.09900000      3.22075000      2.14692000
 Ni     -3.35461000     -0.44917500      2.63741000
 Ni     -1.25701000      0.50305300      1.39845000
 Ni      3.12752000      1.66772000      1.44836000
 Ni      0.89990900      4.09238000     -0.37281700
 Ni      2.51966000     -1.73880000     -2.42977000
 Ni     -1.05167000     -0.31375000      3.85822000
 Ni      0.40783800     -2.71692000     -1.22846000
 Ni     -1.04271000      2.18285000      3.36968000
 Ni      0.77382200      1.50541000      0.19838600
 Ni      2.50648000      0.88603500     -3.04455000
 Ni      0.16143200     -1.90746000     -3.67957000
 Ni     -3.29240000      2.06844000      2.21958000
 Ni     -3.75179000      0.31501400      0.25246300
 Ni      0.98821100     -1.98444000      3.15530000
 Ni     -1.71509000     -3.77511000     -0.04202800
 Ni     -1.68939000      2.26486000     -3.43630000
 Ni     -1.26969000      3.10051000      0.90572600
 Ni     -3.82898000      1.14642000     -2.23347000
 Ni     -3.91794000     -1.37587000     -1.71856000
 Ni      2.81942000      2.61236000     -1.05894000
 Ni     -1.49281000      1.37838000     -1.01030000
 Ni     -1.92451000     -2.88746000     -2.39290000
 Ni     -3.68002000     -2.19520000      0.55377100
 Ni      0.29602300      0.76033700     -4.15866000
 Ni     -1.29944000     -2.06780000      1.91341000
  C      4.23699000      2.99486000      0.29982400
  O      5.36194000      3.74515000      0.34205700
  C      4.60692000     -1.26382000     -1.23239000
  O      5.88073000     -1.43237000     -1.47518000
  C      1.85055000      1.93660000     -4.42641000
  O      2.31801000      2.48082000     -5.49565000
  C     -3.67346000     -2.79173000      2.56777000
  O     -4.66055000     -3.57018000      3.07851000
  C      2.14244000     -5.18143000      1.20608000
  O      2.17043000     -6.43316000      1.45696000
  C     -5.16605000     -1.36610000     -0.27730100
  O     -6.38887000     -1.78476000     -0.25637600
  C      3.30259000     -0.07458800      3.79531000
  O      4.06473000     -0.09279400      4.85780000
  C      2.25361000      4.19811000     -1.94158000
  O      2.77447000      5.18421000     -2.58381000
  C     -4.71030000      0.70620800      2.18139000
  O     -5.87409000      0.74525800      2.74388000
  C      0.49574700     -0.80618300      5.02955000
  O      0.62527000     -1.02498000      6.35205000
  C      0.49681500      2.06909000      4.61927000
  O      0.72056800      2.56388000      5.83366000
  C      1.30203000     -3.58190000     -3.72036000
  O      1.48971000     -4.29453000     -4.81823000
  C     -0.72104900     -3.40774000      3.62781000
  O     -1.04909000     -4.35707000      4.49436000
  C     -3.34868000      3.76789000      1.38807000
  O     -4.14151000      4.76957000      1.60717000
  C     -1.75965000     -4.98099000      1.55378000
  O     -2.27367000     -6.17968000      1.51390000
  C      1.93798000      4.87224000      1.16186000
  O      2.30876000      6.17177000      1.30017000
  C      4.81789000      0.23554300      1.46067000
  O      6.09334000      0.33701800      1.83556000
  C     -4.16430000     -0.28261900     -3.33866000
  O     -5.17789000     -0.45481600     -4.11798000
  C      4.08466000     -2.75607000      1.36232000
  O      5.16117000     -3.48639000      1.69858000
  C      2.99877000      2.97559000      3.02382000
  O      3.77008000      3.67231000      3.88020000
  C     -3.19606000      3.24134000     -2.30649000
  O     -4.03411000      4.06097000     -2.86438000
  C     -0.54863300      3.72386000     -3.37459000
  O     -0.46676300      4.61361000     -4.31581000
  C     -2.77015000      2.21679000      3.99507000
  O     -3.36133000      2.74573000      5.00478000
  C      2.99060000     -3.91691000     -1.73831000
  O      3.80675000     -4.90896000     -2.03760000
  C     -4.84436000      1.59366000     -0.63322500
  O     -6.12007000      1.84212000     -0.66078400
  C     -1.97055000     -2.23516000     -4.59616000
  O     -2.62661000     -2.98785000     -5.48145000
  C     -2.81866000     -0.89180100      4.60350000
  O     -3.39501000     -1.07749000      5.80745000
  C     -3.37410000     -3.56885000     -1.32144000
  O     -4.10656000     -4.53283000     -1.79359000
  C      4.31969000      1.51285000     -2.43535000
  O      5.41897000      1.93306000     -3.07655000
  C      0.28216700     -0.93495900     -5.45699000
  O      0.19115200     -0.97403000     -6.80488000
  C     -1.02753000      5.58923000     -0.24391400
  O     -1.33418000      6.82319000     -0.62700300
  C     -0.36253200     -4.83985000     -1.53158000
  O     -0.28129900     -6.03532000     -2.09927000
  C      3.33557000     -0.96867400     -4.14432000
  O      4.20271000     -1.32206000     -5.07580000
  C     -0.67164100      4.38458000      2.72175000
  O     -0.84688000      5.57620000      3.36476000
  C      2.49498000     -3.15344000      3.55332000
  O      2.95015000     -3.87156000      4.52892000
  C     -2.20599000      1.02689000     -5.00595000
  O     -2.89414000      1.34667000     -6.09912000
