110
Energy = -12805.67415049 au
 Ni     -0.10754800     -3.31168000     -2.14848000
 Ni     -1.30343000      0.10742600     -1.06869000
 Ni      0.34693700     -4.13066000      0.39488600
 Ni     -0.13648700      4.38469000     -0.11121900
 Ni     -0.93629000      2.73417000     -2.09377000
 Ni     -3.08871000      0.97383900      0.84225400
 Ni     -0.95419700     -0.60164500      1.43822000
 Ni      0.19412600      3.60674000      2.55434000
 Ni      0.35860300     -0.82621000     -2.92467000
 Ni      3.24233000     -0.80334200     -0.58980900
 Ni      0.68906900     -1.49908000     -0.38891600
 Ni      2.31640000     -2.39700000     -2.31423000
 Ni      3.69624000      1.95628000     -1.21058000
 Ni      1.85973000     -0.41835400      3.94095000
 Ni      1.48073000      0.29751500      1.32803000
 Ni      2.87108000      0.15183700     -2.92197000
 Ni      1.70473000      3.59680000     -1.94838000
 Ni     -2.17421000     -1.73095000     -2.90205000
 Ni      3.55438000     -1.29112000      2.01307000
 Ni     -1.81408000     -2.45114000     -0.28870200
 Ni      3.98648000      1.12264000      1.11974000
 Ni      1.15129000      1.01448000     -1.15759000
 Ni     -1.73259000      0.77861500     -3.60996000
 Ni     -3.77170000     -0.85636800     -0.90462700
 Ni      2.34820000      2.15946000      3.00971000
 Ni     -0.12571600      1.05047000      3.42175000
 Ni      2.72573000     -3.12112000      0.18609000
 Ni     -1.40078000     -3.10550000      2.34329000
 Ni     -2.48263000      3.44664000      0.01275990
 Ni      2.03120000      3.17994000      0.72359100
 Ni     -2.11900000      2.72956000      2.63912000
 Ni     -2.75664000      0.24057100      3.26773000
 Ni      0.76272300      1.78786000     -3.70420000
 Ni     -0.49285400      1.87725000      0.66069100
 Ni     -3.43477000     -1.59590000      1.70768000
 Ni     -0.77977100     -1.40430000      3.95692000
 Ni     -3.31834000      1.72956000     -1.74849000
 Ni      1.30261000     -2.47406000      2.29185000
  C      3.91160000      3.17016000     -2.68413000
  O      4.98124000      3.83008000     -3.11932000
  C     -4.13426000     -2.27408000     -2.37666000
  O     -5.22467000     -2.76198000     -2.99996000
  C      0.83553600     -4.82095000     -1.35008000
  O      0.98130300     -6.02709000     -1.76526000
  C     -1.17622000     -4.98055000      1.47974000
  O     -1.43088000     -6.24057000      1.90770000
  C      2.00495000      3.97736000      2.71731000
  O      2.50575000      4.99615000      3.34062000
  C     -0.56373400      2.80956000      4.08809000
  O     -0.57907900      3.14433000      5.33785000
  C      3.90267000      2.95255000      0.64421100
  O      4.74163000      3.89829000      0.94158500
  C     -2.31820000     -0.02035650      5.13006000
  O     -3.12710000     -0.10705400      6.19091000
  C     -2.13698000     -4.24797000     -1.21498000
  O     -2.94634000     -5.29456000     -1.31894000
  C     -1.54918000      4.42973000     -1.37681000
  O     -1.94594000      5.50426000     -1.99162000
  C      2.93489000     -1.91240000      3.66659000
  O      3.64675000     -2.48770000      4.58313000
  C      2.58430000      1.29859000      4.74606000
  O      3.36495000      1.59953000      5.83156000
  C      4.71205000      0.40093200     -0.72429100
  O      5.94513000      0.07456840     -0.96961700
  C     -4.36260000      3.15953000      0.20388600
  O     -5.38920000      3.98823000      0.38399900
  C     -4.37155000     -2.87665000      0.56449300
  O     -5.39422000     -3.68103000      0.82354300
  C     -0.06431600     -0.42597600     -4.90755000
  O      0.11432100     -0.87876500     -6.14579000
  C     -3.24004000     -0.38542200     -4.23435000
  O     -3.88579000     -0.53920200     -5.40307000
  C     -3.90749000      2.58091000      3.33735000
  O     -4.65541000      3.34820000      4.11677000
  C      4.20062000     -1.17358000     -3.33325000
  O      5.07691000     -1.33249000     -4.31744000
  C     -3.54080000      2.80805000     -3.31439000
  O     -4.58106000      3.37587000     -3.89101000
  C      1.70008000      4.74253000     -0.37342900
  O      2.19286000      5.93515000     -0.21944800
  C      2.45686000      1.45299000     -4.54933000
  O      2.96942000      1.71618000     -5.77782000
  C      3.64149000     -3.34109000     -1.40968000
  O      4.56474000     -4.16549000     -1.76741000
  C     -4.33164000      0.02859250      2.19339000
  O     -5.56997000      0.18460700      2.53116000
  C      4.72061000      0.42767900      2.78925000
  O      6.01180000      0.54504100      3.20810000
  C      1.45722000     -3.04044000     -3.97247000
  O      1.84733000     -3.74704000     -5.03814000
  C     -0.94848800      2.36179000     -4.21985000
  O     -1.27548000      3.03747000     -5.27420000
  C     -5.15305000      0.68596000     -0.83827100
  O     -6.49165000      0.74465000     -0.96236700
  C      0.43632800     -0.42993800      5.13465000
  O      0.47894600     -0.49218400      6.42105000
  C      1.88817000     -4.31891000      1.42942000
  O      2.46973000     -5.39015000      1.86074000
  C     -2.77670000     -2.47349000      3.46537000
  O     -3.40985000     -3.19063000      4.26700000
  C      0.08986890     -3.08905000      3.63005000
  O      0.41004200     -4.00324000      4.49535000
  C      0.84875700      4.29087000     -3.56377000
  O      1.19835000      5.34982000     -4.28672000
  C     -1.32373000     -3.25211000     -3.86459000
  O     -1.73243000     -4.10957000     -4.83071000
  C      4.54696000     -2.50352000      0.89281500
  O      5.74776000     -3.09584000      1.18336000
  C     -1.26991000      4.62737000      1.53119000
  O     -1.60403000      5.81866000      1.92331000
