110
Energy = -12401.22755775 au
 Ni      1.75624000     -2.55260000     -2.44824000
 Ni     -1.18252000     -1.38918000     -0.40990400
 Ni      3.34269000     -2.30185000     -0.28484200
 Ni     -3.59296000      2.28200000      0.82555700
 Ni     -3.15680000      0.23785600     -0.85111400
 Ni     -2.13910000     -1.92812000      2.00822000
 Ni      0.34227300     -1.04431000      1.62257000
 Ni     -2.13299000      2.59219000      2.79076000
 Ni     -0.29742400     -0.93685900     -2.77183000
 Ni      1.70503000      1.84226000     -1.54800000
 Ni      1.25292000     -0.60162600     -0.75900200
 Ni      2.16699000     -0.11971200     -3.18776000
 Ni     -0.31395000      3.51316000     -2.03446000
 Ni      2.38881000      1.76437000      2.95209000
 Ni      0.79037100      1.37495000      0.85412000
 Ni      0.16053200      1.53603000     -3.62986000
 Ni     -2.74551000      2.68846000     -1.63464000
 Ni     -0.73359300     -3.42103000     -2.05890000
 Ni      3.27034000      2.20116000      0.49054200
 Ni      0.82269200     -3.17625000      0.02457700
 Ni      1.27020000      3.88710000      0.15831300
 Ni     -0.73820300      1.03953000     -1.17985000
 Ni     -2.80599000     -1.76727000     -2.48184000
 Ni     -1.71357000     -3.94362000      0.27733900
 Ni      0.32573800      3.32890000      2.46615000
 Ni     -0.09909740      0.90210800      3.35422000
 Ni      3.78594000      0.26465300     -1.12068000
 Ni      2.41468000     -2.78760000      2.00969000
 Ni     -4.01853000     -0.26830600      1.64999000
 Ni     -1.19941000      3.10160000      0.40377900
 Ni     -2.55481000      0.01624170      3.67640000
 Ni     -0.49128800     -1.48260000      4.07744000
 Ni     -2.32410000      0.72473700     -3.26648000
 Ni     -1.63487000      0.58910700      1.20384000
 Ni      0.06726290     -3.53105000      2.43011000
 Ni      1.93050000     -0.78096200      3.70840000
 Ni     -3.61270000     -2.22810000     -0.07420920
 Ni      2.82937000     -0.30964300      1.26412000
  C      0.62879400      3.81085000     -3.78168000
  O      0.77102700      4.86636000     -4.56836000
  C      4.73673000      1.69875000     -1.89256000
  O      5.90048000      2.05031000     -2.33868000
  C      4.19516000     -2.77175000      1.33759000
  O      5.25097000     -3.40854000      1.70839000
  C     -4.19696000      1.37316000     -3.12030000
  O     -5.26666000      1.65755000     -3.85835000
  C     -1.81419000     -0.05706770      5.79026000
  O     -2.79322000      0.00298481      6.63705000
  C     -2.28097000      4.61143000     -2.32371000
  O     -2.98501000      5.56337000     -2.90249000
  C      2.74721000     -4.07740000     -1.59305000
  O      3.45941000     -5.13042000     -2.06356000
  C      3.34341000     -1.62717000     -3.81797000
  O      4.10224000     -1.92411000     -4.86677000
  C     -0.61050900      2.94421000      4.41553000
  O     -1.01106000      3.72030000      5.47482000
  C     -4.95219000      2.36952000     -0.77189100
  O     -5.98903000      3.18447000     -0.54650200
  C     -0.37650900     -4.95040000     -1.00688000
  O     -0.28607400     -6.30133000     -1.31676000
  C      3.92790000     -0.06263380      3.55943000
  O      4.83626000     -0.25327300      4.52153000
  C     -2.31062000     -1.10760000     -4.47580000
  O     -2.83693000     -1.45775000     -5.67143000
  C     -1.33673000     -5.04739000      1.96335000
  O     -1.77247000     -6.19380000      2.51672000
  C      1.53406000      5.25430000      1.63463000
  O      1.50699000      6.23136000      2.48723000
  C     -3.77733000     -1.72383000      2.93034000
  O     -4.60548000     -2.49039000      3.55689000
  C     -4.77686000     -1.47745000     -2.17715000
  O     -5.95163000     -1.85744000     -2.64960000
  C     -1.45191000      2.16768000     -4.64167000
  O     -1.73335000      2.64383000     -5.86850000
  C      0.07412880      5.23917000     -0.67447600
  O     -0.03007190      6.59043000     -0.72697600
  C      0.60723600     -0.24146900     -4.94679000
  O      0.67194000     -0.45064500     -6.26686000
  C      2.49528000      1.81215000     -4.00608000
  O      3.20050000      2.33836000     -5.01196000
  C      4.95226000      0.34042000      0.92416100
  O      6.19404000      0.40283600      1.39043000
  C      1.64792000     -4.42220000      1.45820000
  O      2.06667000     -5.63724000      1.54853000
  C      4.82714000     -1.53899000     -1.42124000
  O      6.08147000     -1.93664000     -1.72500000
  C     -2.35827000      4.02242000      1.58981000
  O     -2.80004000      5.22762000      1.76135000
  C      0.52582900     -3.22804000     -3.95366000
  O      0.67941200     -4.07959000     -4.98775000
  C      1.88392000      2.60826000      4.64868000
  O      2.56521000      3.27076000      5.53634000
  C      1.69808000     -2.73830000      3.83528000
  O      2.22838000     -3.49137000      4.74803000
  C      2.92279000      3.99873000     -1.17239000
  O      3.61598000      5.05744000     -1.60285000
  C      3.73623000      3.51120000      1.93931000
  O      4.85410000      4.18906000      2.15172000
  C     -5.42461000     -0.59861100      0.23675000
  O     -6.71890000     -0.54771800      0.59051300
  C     -2.65883000     -3.83069000     -2.74158000
  O     -3.19617000     -4.77266000     -3.54561000
  C      0.61864700     -0.16101400      4.91583000
  O      0.78538500      0.01326040      6.19213000
  C     -1.39588000     -3.46759000      4.13209000
  O     -1.49804000     -3.91069000      5.39978000
  C     -3.95633000      1.64474000      2.80674000
  O     -4.94216000      2.14030000      3.48720000
  C     -3.60169000     -4.07883000      0.14391000
  O     -4.57069000     -4.93987000      0.18777400
