#B3LYP/6-31+G(d) OPT FREQ

110, Energy = -12233.72295974 au

0 1
 Ni     -2.44106000     -2.85963000     -2.16809000
 Ni     -1.83407000      0.68657900     -1.04348000
 Ni     -1.97674000     -3.75518000      0.21448300
 Ni      1.31836000      4.10569000     -0.58160600
 Ni     -0.49207800      2.92253000     -2.03311000
 Ni     -2.76934000      2.14272000      1.05323000
 Ni     -1.47626000     -0.19737100      1.38103000
 Ni      1.68567000      3.10705000      2.18542000
 Ni     -1.02255000     -0.73963900     -3.09209000
 Ni      2.03785000     -1.86391000     -1.13911000
 Ni     -0.63526700     -1.65604000     -0.63103900
 Ni      0.30954500     -3.26104000     -2.71790000
 Ni      3.42132000      0.07635320     -1.97072000
 Ni      1.52556000     -1.35818000      3.46102000
 Ni      1.12926000     -0.39741000      0.95184600
 Ni      1.61494000     -0.98872800     -3.54941000
 Ni      2.21181000      2.71981000     -2.40818000
 Ni     -3.49472000     -0.29584900     -2.74605000
 Ni      2.34704000     -2.86842000      1.37113000
 Ni     -3.36106000     -1.53195000     -0.17693600
 Ni      3.84448000     -0.60952300      0.61711100
 Ni      0.73216200      0.47447000     -1.54588000
 Ni     -2.44132000      1.60516000     -3.45522000
 Ni     -4.44020000      0.82466200     -0.79363900
 Ni      3.05546000      0.81435500      2.59205000
 Ni      0.32872600      0.98680600      3.07756000
 Ni      0.62570900     -4.09738000     -0.20319300
 Ni     -2.86580000     -2.20513000      2.27625000
 Ni     -1.30237000      4.17825000     -0.07353650
 Ni      2.56875000      1.74464000      0.05778470
 Ni     -0.97939200      3.30164000      2.61439000
 Ni     -2.36543000      1.13541000      3.60486000
 Ni      0.30736600      1.25647000     -4.18979000
 Ni     -0.11789200      1.89571000      0.51608100
 Ni     -3.96151000     -0.07423040      2.15714000
 Ni     -1.28862000     -0.98853100      3.94221000
 Ni     -3.13984000      2.92152000     -1.53538000
 Ni     -0.24654200     -2.48879000      1.88440000
  C      0.35471500      3.43939000      4.14957000
  O      0.37344800      4.34570000      5.14059000
  C     -3.34662000     -0.03214440     -4.67239000
  O     -4.18043000     -0.12194400     -5.72713000
  C     -0.33330900     -2.40615000     -4.56777000
  O     -0.58239600     -2.86392000     -5.80665000
  C     -0.23868100      0.45208600     -5.95143000
  O     -0.50787400      0.97932300     -7.08710000
  C      2.11911000      4.81284000      1.22372000
  O      2.65042000      6.01922000      1.58858000
  C      2.32350000     -4.91244000      0.05709130
  O      2.84349000     -6.12255000      0.05131280
  C     -0.34494100     -4.71528000      1.85106000
  O     -0.34707800     -5.77315000      2.70373000
  C      2.17759000     -0.41520300     -5.34261000
  O      2.96957000     -0.76746300     -6.34719000
  C     -3.21045000     -4.41679000     -2.95040000
  O     -3.75034000     -4.98937000     -3.97983000
  C     -0.14900700     -2.42798000      4.68922000
  O     -0.21472600     -3.02608000      5.89348000
  C      4.55584000     -0.53624400      2.75176000
  O      5.75811000     -0.53864000      3.36289000
  C     -2.97712000      3.15571000      3.52772000
  O     -3.81601000      3.93575000      4.24550000
  C     -3.86852000     -3.97129000      0.47120900
  O     -4.70590000     -5.00218000      0.41768800
  C      5.34283000      0.10041200     -0.55745500
  O      6.63155000     -0.06515890     -0.68584400
  C     -0.85975900     -5.18518000     -1.29481000
  O     -0.97884300     -6.51918000     -1.45576000
  C     -0.98384200      5.19413000      1.60188000
  O     -1.34140000      6.45879000      1.92847000
  C     -3.40550000     -0.06529320      3.96385000
  O     -4.25151000     -0.11283000      5.10399000
  C      2.40600000     -0.22818700      4.76466000
  O      2.89561000     -0.38692100      6.00182000
  C      4.40086000      2.47470000      1.03839000
  O      5.48532000      3.12360000      0.90380800
  C     -4.68147000      1.61309000      1.05741000
  O     -5.71522000      2.28208000      1.43822000
  C      3.93678000      1.66144000     -3.15548000
  O      4.96723000      1.93797000     -3.98586000
  C     -4.69565000     -1.35788000     -1.40396000
  O     -5.81854000     -1.89993000     -1.70784000
  C     -5.11951000     -1.61535000      1.86561000
  O     -6.38468000     -1.95338000      2.15802000
  C     -0.04547960      4.68182000     -1.60909000
  O     -0.16466700      5.76344000     -2.37689000
  C      3.29795000      2.64787000      3.55154000
  O      3.99729000      3.17263000      4.55641000
  C     -1.86499000      3.41558000     -3.99064000
  O     -2.37901000      4.40138000     -4.73266000
  C      4.27224000     -2.61536000      0.84996700
  O      5.38779000     -3.38917000      0.91661500
  C      1.19842000      3.27249000     -4.18322000
  O      1.56242000      4.05096000     -5.22588000
  C     -4.37151000      1.79452000     -2.32539000
  O     -5.52496000      2.29494000     -2.84344000
  C      3.93530000     -1.94826000     -2.35514000
  O      4.81859000     -2.75198000     -2.94277000
  C     -3.65958000      4.41462000     -0.23513800
  O     -4.47752000      5.43750000     -0.52174900
  C      2.34472000     -3.35107000      3.43001000
  O      3.02233000     -4.17348000      4.23310000
  C     -0.82316500      0.72702100      4.65395000
  O     -0.65008700      1.05894000      5.90099000
  C      3.41848000      4.18229000     -1.45059000
  O      4.14982000      5.16508000     -1.96582000
  C      1.67924000     -4.58663000     -3.21948000
  O      1.83318000     -5.47023000     -4.12268000
  C     -2.65540000     -3.30286000      3.84986000
  O     -3.49610000     -4.05059000      4.50843000

