#B3LYP/6-31+G(d) OPT FREQ

110, Energy = -11908.90479930 au

0 1
 Ni     -0.11833700     -3.32062000     -2.09071000
 Ni     -1.51673000     -0.05664910     -1.03738000
 Ni      0.60110400     -3.85672000      0.32993200
 Ni     -0.64421600      4.39128000     -0.47077000
 Ni     -1.45531000      2.36303000     -1.94006000
 Ni     -2.97978000      0.73929100      0.92565900
 Ni     -0.78724600     -0.53034800      1.36816000
 Ni      0.06738810      3.86888000      1.95648000
 Ni     -0.06614250     -0.86022300     -3.00438000
 Ni      2.90882000     -0.19144000     -1.05541000
 Ni      0.66451600     -1.34668000     -0.59059900
 Ni      2.13571000     -2.13392000     -2.60049000
 Ni      3.00540000      2.24132000     -1.99176000
 Ni      2.24791000      0.13008900      3.34080000
 Ni      1.46034000      0.60277100      0.90111200
 Ni      2.20136000      0.29479900     -3.50566000
 Ni      0.78489300      3.54131000     -2.42177000
 Ni     -2.33278000     -2.01105000     -2.55844000
 Ni      3.68946000     -0.64511500      1.37404000
 Ni     -1.57472000     -2.48111000     -0.12656200
 Ni      3.74806000      1.77587000      0.47788700
 Ni      0.73008200      1.07623000     -1.50573000
 Ni     -2.27754000      0.41323100     -3.46928000
 Ni     -3.81025000     -1.22666000     -0.58805300
 Ni      2.29446000      2.55439000      2.40949000
 Ni      0.01121100      1.40363000      2.85907000
 Ni      2.86313000     -2.64097000     -0.15338400
 Ni     -0.84579600     -2.99814000      2.30739000
 Ni     -2.91080000      3.17773000      0.01602840
 Ni      1.53229000      3.04142000     -0.00544397
 Ni     -2.20185000      2.67444000      2.44469000
 Ni     -2.27476000      0.25095700      3.38285000
 Ni     -0.00245672      1.57472000     -3.93976000
 Ni     -0.72166000      1.89384000      0.45295900
 Ni     -3.05610000     -1.69936000      1.85261000
 Ni     -0.05425770     -1.03545000      3.80358000
 Ni     -3.74397000      1.21058000     -1.49740000
 Ni      1.39943000     -1.82246000      1.81258000
  C     -1.03538000     -3.03995000      4.26819000
  O     -1.18896000     -3.60295000      5.45848000
  C     -3.52248000     -0.33541400      5.11119000
  O     -4.08506000     -0.34493800      6.20872000
  C      4.32756000     -2.84445000      1.46183000
  O      5.52163000     -3.23006000      1.85550000
  C     -2.07066000     -4.43950000     -1.00622000
  O     -2.62019000     -5.57349000     -1.23844000
  C      4.03553000     -2.83010000     -2.18829000
  O      4.93660000     -3.62366000     -2.73668000
  C      2.36711000      3.30162000     -3.87529000
  O      2.77544000      4.42966000     -4.47454000
  C     -4.16599000      2.15182000      2.17343000
  O     -5.10058000      2.79604000      2.87044000
  C     -3.75642000      2.19870000     -3.45551000
  O     -4.69665000      2.49888000     -4.35942000
  C      1.27727000     -4.89334000     -1.99378000
  O      1.29329000     -5.97432000     -2.71817000
  C      5.03333000      2.82976000     -1.07466000
  O      5.90238000      3.51660000     -1.72397000
  C      3.21555000     -1.51438000      4.53815000
  O      3.91357000     -1.63173000      5.60416000
  C      4.55934000      0.91391200      2.34175000
  O      5.76188000      1.07279000      2.80605000
  C      3.61076000      3.74914000      1.11378000
  O      4.49673000      4.54813000      1.61130000
  C     -5.42887000      0.16742600     -0.31673000
  O     -6.64939000      0.52723300     -0.68642800
  C     -4.26151000     -1.05736000     -3.11404000
  O     -5.15769000     -1.58058000     -3.95037000
  C     -1.03456000      2.68325000      4.46113000
  O     -1.48256000      3.47073000      5.39831000
  C      2.03005000      1.98794000      4.57541000
  O      2.74928000      2.70410000      5.43479000
  C      1.31793000      5.05143000     -0.59875100
  O      1.79069000      6.24516000     -0.67535100
  C      0.25501900      0.29880100      5.26058000
  O      0.23462300      0.30149800      6.57465000
  C     -1.90045000      4.52191000      1.44171000
  O     -2.35622000      5.70359000      1.71032000
  C      4.30508000      0.03709320     -3.23177000
  O      5.06232000      0.09088140     -4.29838000
  C     -1.43027000      4.57472000     -2.39836000
  O     -1.67458000      5.83135000     -2.53763000
  C     -1.43176000      3.63620000     -4.07670000
  O     -1.53167000      3.93622000     -5.39079000
  C     -4.71419000     -0.55779100      2.07247000
  O     -5.87704000     -0.85345200      2.62221000
  C      1.96232000      5.19225000      2.99061000
  O      1.67541000      6.24850000      3.66967000
  C     -1.28608000     -0.46407400     -4.94544000
  O     -1.74810000     -0.58889900     -6.21966000
  C      2.53356000     -4.62727000      0.38205600
  O      3.20119000     -5.78932000      0.38137000
  C     -4.53174000      3.30904000     -1.61258000
  O     -5.28612000      4.33560000     -1.27084000
  C     -2.89425000     -3.97716000      2.33762000
  O     -3.77300000     -4.67956000      2.99763000
  C      1.26915000     -2.14480000     -4.80230000
  O      1.77975000     -2.85446000     -5.74198000
  C      4.94668000     -0.27072700     -0.65709600
  O      6.25830000     -0.34782300     -0.84760300
  C     -4.39366000     -3.36370000     -0.37632500
  O     -5.61848000     -3.72707000     -0.51337100
  C      1.76268000     -3.49865000      3.12409000
  O      2.22949000     -4.37513000      3.91337000
  C     -0.49750200     -5.10562000      1.41960000
  O     -0.55423000     -6.36299000      1.81336000
  C     -1.39540000     -3.23010000     -3.84685000
  O     -1.82649000     -4.09955000     -4.79905000
  C      1.00693000      0.84335600     -5.52515000
  O      1.58003000      1.18780000     -6.66179000

