110
Energy = -12519.04343138 au
 Ni     -0.83647100     -3.37706000     -1.74128000
 Ni     -1.57833000     -0.05538990      0.11116800
 Ni      1.02294000     -3.89697000     -0.00585577
 Ni     -0.52982000      4.31245000      0.48135200
 Ni     -2.04093000      2.54755000     -0.57046700
 Ni     -1.93543000      0.69820000      2.78531000
 Ni      0.25252400     -0.58733800      1.87677000
 Ni      1.31775000      3.79467000      2.23845000
 Ni     -1.29633000     -0.81189700     -2.48915000
 Ni      2.32887000     -0.04449950     -2.13787000
 Ni      0.59460600     -1.30694000     -0.62387100
 Ni      0.89995200     -2.02424000     -3.21581000
 Ni      2.16714000      2.50398000     -2.81979000
 Ni      3.90843000      0.08889360      2.06819000
 Ni      1.99446000      0.63995400      0.44811800
 Ni      0.58883000      0.43707700     -3.91847000
 Ni     -0.20587200      3.65656000     -1.97577000
 Ni     -3.08459000     -2.04478000     -1.06781000
 Ni      4.21305000     -0.60035000     -0.26733800
 Ni     -1.19069000     -2.54373000      0.79048300
 Ni      3.76511000      1.83115000     -0.93772900
 Ni      0.18281100      1.17733000     -1.31682000
 Ni     -3.55553000      0.41828100     -1.72729000
 Ni     -3.39501000     -1.31275000      1.54419000
 Ni      3.50521000      2.52983000      1.46740000
 Ni      1.88847000      1.30463000      3.29471000
 Ni      2.88056000     -2.61378000     -1.40386000
 Ni      0.67985000     -3.08220000      2.54911000
 Ni     -2.37976000      3.18398000      1.78396000
 Ni      1.83940000      3.30522000     -0.25148700
 Ni     -0.46920900      2.56439000      3.64677000
 Ni     -0.12179000      0.04322090      4.56181000
 Ni     -1.74293000      1.71247000     -3.14697000
 Ni     -0.14387900      1.85807000      1.16971000
 Ni     -1.44805000     -1.84837000      3.37525000
 Ni      2.13810000     -1.15278000      3.67973000
 Ni     -3.83324000      1.13902000      0.91267100
 Ni      2.39796000     -1.84060000      1.13559000
  C      2.95075000      4.30522000      1.48159000
  O      3.67636000      5.34916000      1.63649000
  C     -3.68942000     -0.53680400      3.47035000
  O     -4.60359000     -0.53311900      4.47004000
  C      3.41921000      3.54952000     -1.60827000
  O      4.23176000      4.45546000     -1.81014000
  C      1.24705000      5.33205000     -0.53483900
  O      1.17909000      6.64982000     -0.25647800
  C      2.83553000     -4.13053000      1.07383000
  O      3.77210000     -5.03365000      1.37363000
  C     -1.06592000     -1.42690000      5.13787000
  O     -1.37631000     -1.89574000      6.30865000
  C     -4.00577000      2.69123000      2.70222000
  O     -4.91190000      3.44753000      3.32069000
  C      1.83438000     -1.07430000     -4.69453000
  O      2.38499000     -1.40994000     -5.89828000
  C     -1.12582000     -1.07184000     -4.56773000
  O     -1.76677000     -1.46105000     -5.67353000
  C     -2.39554000      4.43308000      0.27114700
  O     -3.11464000      5.49942000      0.00085244
  C     -1.41983000      1.40405000      4.77166000
  O     -2.09586000      1.77164000      5.83083000
  C     -2.07360000     -4.44468000     -0.57356300
  O     -2.63161000     -5.65441000     -0.56203000
  C      0.83950800     -5.11732000     -1.55957000
  O      1.02364000     -6.42024000     -1.67006000
  C      2.93659000      1.49336000     -4.36529000
  O      3.67033000      1.90146000     -5.37844000
  C     -0.74109400      4.37143000      2.63274000
  O     -0.93589700      5.46980000      3.30148000
  C     -5.43163000      0.14570100      1.18680000
  O     -6.69392000      0.34220000      1.45852000
  C      1.43511000     -2.97442000      4.42596000
  O      1.96145000     -3.91790000      5.24859000
  C     -5.00331000     -0.82149100     -1.85122000
  O     -6.19614000     -0.94727600     -2.40089000
  C      3.85758000      1.68115000      3.10487000
  O      4.76413000      1.99525000      3.99158000
  C      1.28170000      4.33494000     -3.31285000
  O      1.56602000      5.39593000     -4.07951000
  C     -3.53643000      1.02685000     -3.81089000
  O     -4.38890000      1.23684000     -4.82191000
  C     -0.42045600      1.82564000     -4.87656000
  O     -0.52911300      2.18356000     -6.17207000
  C      4.97224000      1.14859000      0.37592400
  O      6.24911000      1.38528000      0.31970500
  C      1.74321000      0.11522100      5.02414000
  O      2.31510000      0.19515200      6.17743000
  C      4.44886000     -0.23238700     -2.45930000
  O      5.39532000     -0.27028500     -3.41751000
  C      3.33085000     -3.58533000     -3.28430000
  O      4.21909000     -4.42530000     -3.63862000
  C     -0.13716100     -4.80620000      1.82597000
  O     -0.28985200     -6.04105000      2.33103000
  C     -0.19767900     -3.76414000     -3.68970000
  O     -0.19960500     -4.75439000     -4.55795000
  C      1.34451000      3.01274000      3.96650000
  O      1.83798000      3.51720000      5.03280000
  C      4.32639000     -1.67629000      2.92112000
  O      5.30134000     -2.24366000      3.65701000
  C     -4.34293000      2.33532000     -0.95180600
  O     -5.40338000      3.13937000     -1.28072000
  C     -2.99593000     -2.93746000     -2.77584000
  O     -3.82096000     -3.65782000     -3.54697000
  C     -2.19102000      3.80299000     -2.88999000
  O     -2.75848000      4.77644000     -3.63941000
  C      4.83264000     -2.53145000      0.20263400
  O      6.13721000     -2.77652000      0.10832000
  C     -4.38444000     -2.64083000      0.43771900
  O     -5.51272000     -3.38578000      0.53004100
  C     -2.71404000     -3.33377000      2.83605000
  O     -3.33206000     -4.30229000      3.50734000
