#B3LYP/6-31+G(d) OPT FREQ

110, Energy = -12514.02436548 au

0 1
 Ni     -2.68212000     -1.69988000     -2.48108000
 Ni     -0.27234800      0.99528100     -1.24598000
 Ni     -3.60108000     -1.92109000     -0.08672060
 Ni      3.91820000      1.80570000      0.38654500
 Ni      2.23470000      1.60862000     -1.64941000
 Ni     -0.44802300      3.06233000      0.36952900
 Ni     -1.16875000      0.64825800      1.16618000
 Ni      3.03498000      1.51346000      2.79531000
 Ni     -0.02800530     -1.03625000     -2.86209000
 Ni      0.92577400     -3.48344000     -0.04675080
 Ni     -0.96443300     -1.38891000     -0.42199800
 Ni     -0.75974000     -3.46179000     -2.04513000
 Ni      3.49388000     -2.56783000     -0.33176300
 Ni     -0.23448300     -1.57895000      4.19928000
 Ni      0.67285700     -1.15900000      1.60098000
 Ni      1.81209000     -2.99933000     -2.42765000
 Ni      4.15758000     -0.20838500     -1.15214000
 Ni     -1.97330000      0.73768500     -3.31921000
 Ni     -0.01669800     -3.56542000      2.53471000
 Ni     -2.92322000      0.42184400     -0.86601300
 Ni      2.48634000     -2.95864000      2.14475000
 Ni      1.58068000     -0.82158700     -0.80205400
 Ni      0.68658800      1.33421000     -3.75571000
 Ni     -2.15178000      2.84635000     -1.72315000
 Ni      2.24549000     -0.84031900      3.67333000
 Ni      0.42470400      1.05127000      3.26095000
 Ni     -1.61813000     -3.78205000      0.34867400
 Ni     -3.77224000      0.08565240      1.64284000
 Ni      2.15278000      3.70362000     -0.04715830
 Ni      3.64375000     -0.65174200      1.46938000
 Ni      1.21500000      3.38373000      2.40981000
 Ni     -1.35340000      2.69641000      2.87211000
 Ni      2.59547000     -0.49037400     -3.22217000
 Ni      1.38199000      1.22440000      0.78649500
 Ni     -2.96699000      2.50538000      0.74040200
 Ni     -2.07028000      0.33121900      3.67142000
 Ni      0.46705700      3.44100000     -2.11520000
 Ni     -1.94935000     -1.76817000      2.14361000
  C      4.19662000      1.68032000     -2.43345000
  O      5.04321000      2.46395000     -3.12130000
  C      1.72333000     -2.69432000      4.03873000
  O      2.17620000     -3.35214000      5.03469000
  C      2.49356000     -2.42438000     -4.14834000
  O      3.29865000     -3.08738000     -5.02231000
  C      1.43799000     -4.41885000      1.57511000
  O      1.82393000     -5.64978000      1.71236000
  C     -2.47502000      2.65816000     -3.77764000
  O     -3.11794000      3.32303000     -4.75699000
  C     -0.94720400      4.73198000     -1.73604000
  O     -1.19501000      6.00582000     -2.13319000
  C      1.21755000      4.91396000      1.08313000
  O      1.45455000      6.27172000      1.29273000
  C     -2.60260000     -3.72585000     -2.25330000
  O     -3.26993000     -4.70970000     -2.97645000
  C     -1.76470000      1.75697000      5.02160000
  O     -2.31770000      2.16847000      6.15716000
  C     -4.81375000     -2.17527000     -1.56713000
  O     -5.99930000     -2.65782000     -1.84060000
  C     -1.89982000      4.52711000      1.23306000
  O     -2.10452000      5.81627000      1.51095000
  C      4.21149000      3.78851000      0.50191300
  O      5.24976000      4.64174000      0.51464500
  C     -0.00226549      3.53626000      3.90136000
  O      0.00311057      4.40147000      4.84547000
  C     -1.53560000     -4.16589000      3.47843000
  O     -1.84972000     -5.16108000      4.26867000
  C      4.19630000     -2.49104000      1.49243000
  O      5.30624000     -2.93692000      1.97610000
  C     -1.43256000     -1.90253000      5.62508000
  O     -1.46582000     -2.14816000      6.88490000
  C     -0.47008300     -2.68580000     -4.14520000
  O     -0.49616700     -3.07323000     -5.42287000
  C      4.67926000     -1.68098000     -2.41931000
  O      5.95076000     -1.78823000     -2.86713000
  C     -3.17162000     -0.76978000     -4.22637000
  O     -4.02441000     -0.93108700     -5.24870000
  C     -3.45054000     -0.86709200      3.23648000
  O     -4.33256000     -1.33050000      4.05781000
  C     -1.09805000     -5.58106000      0.06176780
  O     -1.64996000     -6.73825000      0.23503700
  C      2.33608000      4.42803000     -1.85145000
  O      2.89561000      5.57448000     -2.35220000
  C      0.73321600      3.24302000     -4.16033000
  O      0.94894500      4.01793000     -5.24206000
  C     -0.47079800      0.41352900     -5.03622000
  O     -0.59404700      0.41577300     -6.38852000
  C     -3.68455000     -3.30196000      1.30630000
  O     -4.70525000     -4.05642000      1.83372000
  C      0.78950000     -4.52403000     -1.96800000
  O      0.91537700     -5.73961000     -2.35668000
  C     -4.30542000      0.95947000     -2.14867000
  O     -5.55375000      1.15192000     -2.41790000
  C      2.45657000      0.49236000     -4.87661000
  O      3.15422000      0.62988700     -6.00880000
  C      3.93359000     -0.06797140      3.32459000
  O      4.96682000     -0.17202700      4.09876000
  C     -3.74229000      2.31086000      2.53606000
  O     -4.76261000      3.06953000      3.10190000
  C     -5.43246000     -0.09222350      0.72394000
  O     -6.67192000      0.12681600      1.05579000
  C     -3.99701000      3.39788000     -0.90372300
  O     -4.86691000      4.40639000     -1.05888000
  C      5.02866000      0.26229500      0.54998100
  O      6.26025000      0.23838800      0.92197400
  C      1.32797000      0.55223100      5.06565000
  O      1.47465000      1.04593000      6.31707000
  C      3.14596000      3.55618000      3.22060000
  O      3.71186000      4.23664000      4.23436000
  C      3.24607000     -4.34738000     -1.28438000
  O      4.22274000     -5.24708000     -1.52125000

