110
Energy = -12415.11492080 au
 Ni      0.20114200     -3.53633000     -2.51219000
 Ni     -1.58506000     -0.58175300     -1.18905000
 Ni      0.83766600     -4.23515000     -0.15785900
 Ni     -1.38003000      3.86648000     -0.14424000
 Ni     -1.75476000      1.95389000     -1.86335000
 Ni     -3.39319000     -0.06454440      0.79607900
 Ni     -0.83902600     -1.17945000      1.17803000
 Ni     -0.58955900      3.25802000      2.16343000
 Ni      0.00410054     -1.13766000     -3.45218000
 Ni      3.00378000     -0.22832100     -1.19505000
 Ni      0.71524100     -1.66340000     -0.82333500
 Ni      2.33332000     -2.09543000     -2.84468000
 Ni      2.82979000      2.27911000     -1.90475000
 Ni      2.13894000     -0.31189100      3.40993000
 Ni      1.30246000      0.22035900      0.86683000
 Ni      2.09219000      0.29931500     -3.56300000
 Ni      0.43807400      3.36841000     -2.25611000
 Ni     -2.17092000     -2.39256000     -2.91718000
 Ni      3.64422000     -0.79563700      1.25230000
 Ni     -1.55279000     -3.30651000     -0.53002100
 Ni      3.53359000      1.67955000      0.42923100
 Ni      0.54892700      0.81943500     -1.52081000
 Ni     -2.37757000     -0.01652740     -3.57782000
 Ni     -3.77462000     -1.96230000     -0.85373100
 Ni      2.01266000      2.20743000      2.71938000
 Ni     -0.24963700      0.71161100      2.96301000
 Ni      3.12642000     -2.70784000     -0.55230900
 Ni     -0.66292800     -3.73428000      1.78056000
 Ni     -3.38679000      2.48471000      0.28943800
 Ni      1.13358000      2.71388000      0.17242100
 Ni     -2.71262000      1.93341000      2.41236000
 Ni     -2.45711000     -0.73320200      3.24314000
 Ni     -0.27302100      1.38324000     -3.96614000
 Ni     -1.01775000      1.31317000      0.49386000
 Ni     -3.01146000     -2.65847000      1.41917000
 Ni     -0.01842340     -1.79534000      3.61604000
 Ni     -4.02237000      0.43407300     -1.47259000
 Ni      1.49400000     -2.23402000      1.56165000
  C     -0.70653700     -5.00202000     -0.22139300
  O     -1.07454000     -6.21531000     -0.39692700
  C      0.78020300      5.03872000     -1.23055000
  O      1.03419000      6.28119000     -1.58818000
  C      1.90379000      3.87704000      3.78777000
  O      2.59454000      4.57733000      4.63344000
  C     -5.08463000     -0.66071800     -0.46758600
  O     -6.34582000     -0.88837100     -0.38621700
  C      1.92987000     -4.66332000     -2.20915000
  O      2.12419000     -5.79052000     -2.95176000
  C      0.13747500      0.59842100      4.84180000
  O      0.01809240      0.96304200      6.11727000
  C      3.33866000      0.76865300      4.52275000
  O      3.97915000      0.76137600      5.59979000
  C      1.02601000     -4.50549000      2.41162000
  O      1.41122000     -5.58317000      3.11545000
  C     -4.50306000     -1.44922000      2.55552000
  O     -5.59975000     -2.04713000      3.07114000
  C     -1.87844000     -2.17821000      4.50321000
  O     -2.30342000     -2.60674000      5.71638000
  C     -3.11030000      0.95385500      4.26995000
  O     -3.93593000      1.20484000      5.30104000
  C      5.03574000     -1.20839000     -0.03079520
  O      6.36910000     -1.39957000     -0.00013715
  C     -1.40371000     -0.90089400     -4.75136000
  O     -1.53397000     -1.22582000     -5.97639000
  C      3.93856000     -2.56618000     -2.14425000
  O      4.97551000     -3.07330000     -2.66438000
  C      4.44807000      1.71430000     -1.11130000
  O      5.65928000      1.97425000     -1.39921000
  C     -3.44855000     -3.74892000     -0.49171100
  O     -4.16842000     -4.78891000     -0.75659900
  C      0.02193630      5.06329000      1.29856000
  O      0.06476010      6.32622000      1.71668000
  C     -4.41601000      1.48263000      1.47569000
  O     -5.64014000      1.59914000      1.88405000
  C      3.12262000      3.78377000      0.46366100
  O      3.80151000      4.92221000      0.57155000
  C     -1.52464000     -4.28383000     -3.37078000
  O     -1.91319000     -5.18305000     -4.30766000
  C     -0.65015900      3.44412000     -4.13510000
  O     -0.75973000      4.36131000     -5.10866000
  C      4.50871000      1.28927000      2.15983000
  O      5.70694000      1.75117000      2.56737000
  C     -2.55473000      4.29885000     -1.79088000
  O     -3.13130000      5.41377000     -2.18989000
  C     -4.61317000      2.47187000     -1.64072000
  O     -5.83927000      2.89493000     -1.95785000
  C      2.56695000      3.48536000     -3.59849000
  O      3.39209000      4.30770000     -4.17888000
  C      1.60808000     -2.44465000      4.49718000
  O      1.85055000     -2.92127000      5.72043000
  C      3.98078000      0.05698920     -3.53880000
  O      4.92675000      0.08709810     -4.47388000
  C      3.73539000     -2.19253000      2.62760000
  O      4.67457000     -2.85865000      3.31509000
  C     -1.25185000      3.10399000      4.02260000
  O     -1.52517000      4.03348000      4.93230000
  C     -2.93079000      1.85041000     -4.00145000
  O     -3.62858000      2.43101000     -4.98378000
  C     -3.89652000     -1.33394000     -2.95113000
  O     -4.85697000     -1.64859000     -3.76685000
  C      1.36562000     -2.06317000     -4.42267000
  O      1.51770000     -2.56923000     -5.59741000
  C      2.97140000     -4.53712000      0.51079600
  O      3.85291000     -5.54022000      0.51494800
  C      1.07740000      0.96457600     -5.32330000
  O      1.35786000      1.29592000     -6.60369000
  C     -2.76978000      3.76054000      1.42956000
  O     -3.52334000      4.73657000      1.81079000
  C     -2.50413000     -4.41246000      2.33874000
  O     -3.06310000     -5.46467000      2.96964000
