#B3LYP/6-31+G(d) OPT FREQ

110, Energy = -12956.49251217 au

0 1
 Ni      0.88258900     -3.50671000     -2.14881000
 Ni     -1.29033000     -0.37332400     -1.39544000
 Ni      0.77372700     -4.07250000      0.56824300
 Ni     -1.23177000      4.14628000     -0.38352900
 Ni     -1.51294000      2.44945000     -2.36855000
 Ni     -3.83413000      0.06239550     -0.02903330
 Ni     -1.30349000     -0.91141100      1.15366000
 Ni     -1.29589000      3.59050000      2.01166000
 Ni      0.89971400     -0.99425100     -2.96220000
 Ni      2.97091000      0.13007700      0.02290110
 Ni      0.84584700     -1.40188000     -0.25207600
 Ni      3.06836000     -1.85635000     -1.59639000
 Ni      2.98364000      2.68814000     -0.75849300
 Ni      0.93798700      0.14423600      4.04271000
 Ni      0.80778500      0.59437400      1.47479000
 Ni      2.97427000      0.70551300     -2.52508000
 Ni      0.73189800      3.65258000     -2.06770000
 Ni     -1.24707000     -2.50713000     -3.13740000
 Ni      2.97465000     -0.34994700      2.60259000
 Ni     -1.47030000     -3.26886000     -0.53971500
 Ni      2.91888000      2.12688000      1.85213000
 Ni      0.81640400      1.11270000     -1.10520000
 Ni     -1.34095000      0.28427300     -3.96855000
 Ni     -3.41782000     -1.90664000     -1.82031000
 Ni      0.82374500      2.58838000      3.34034000
 Ni     -1.48620000      1.11377000      3.12911000
 Ni      3.04322000     -2.57459000      1.00100000
 Ni     -1.33246000     -3.48440000      2.03256000
 Ni     -3.40447000      2.63305000     -0.72096900
 Ni      0.83731600      3.20465000      0.66804000
 Ni     -3.44432000      2.09595000      1.73066000
 Ni     -3.43013000     -0.52426200      2.68573000
 Ni      0.86902400      1.65181000     -3.64752000
 Ni     -1.30741000      1.57556000      0.31278300
 Ni     -3.45968000     -2.39645000      0.87640500
 Ni     -1.29679000     -1.53878000      3.69707000
 Ni     -3.48112000      0.70831000     -2.64757000
 Ni      0.91196900     -2.18371000      2.51572000
  C     -3.08062000     -3.13413000      2.56298000
  O     -3.86241000     -4.01193000      3.11095000
  C     -0.88635900     -4.82786000      0.85514800
  O     -1.21116000     -6.07057000      1.01085000
  C     -1.92148000      3.58704000      3.89039000
  O     -2.46231000      4.56471000      4.58125000
  C      1.17155000     -1.44993000      5.00383000
  O      1.46275000     -1.79249000      6.25742000
  C     -4.65863000     -0.45807100     -1.74156000
  O     -5.91112000     -0.61315100     -2.05601000
  C     -0.90524800     -4.17236000     -2.10420000
  O     -1.26900000     -5.38243000     -2.40553000
  C      0.15325400     -0.08013140     -5.22908000
  O      0.29398300     -0.23089800     -6.56270000
  C      0.05930510      4.92269000      1.03666000
  O      0.49987400      6.08065000      1.27035000
  C      1.82515000     -4.85361000     -0.95422600
  O      2.23015000     -6.14472000     -1.16323000
  C      2.86672000      1.26441000      3.71954000
  O      3.74565000      1.52455000      4.63741000
  C     -3.70529000      1.24674000      3.36985000
  O     -4.55358000      1.61764000      4.27378000
  C     -3.48981000      2.59926000     -2.61311000
  O     -4.24240000      3.42520000     -3.27552000
  C     -0.34517300      1.42516000      4.59941000
  O     -0.69479500      1.66669000      5.82551000
  C      2.48535000      2.84718000     -3.77051000
  O      2.99225000      3.40233000     -4.89223000
  C     -0.48691200     -3.22959000      3.66573000
  O     -0.43991500     -4.09285000      4.63208000
  C     -0.86327700      4.64234000     -2.16375000
  O     -1.10400000      5.78151000     -2.72454000
  C      1.71251000      4.25355000      3.54759000
  O      1.97819000      4.95542000      4.60427000
  C      4.50743000      2.06078000     -1.75485000
  O      5.62923000      2.69294000     -2.20525000
  C     -4.68768000     -1.03590000      1.33320000
  O     -5.95746000     -1.19261000      1.56528000
  C      2.93670000     -3.32734000     -2.89423000
  O      3.81805000     -4.08496000     -3.57811000
  C     -2.84876000     -0.88798900      4.59898000
  O     -3.45271000     -1.06556000      5.81527000
  C      0.44740100     -2.83630000     -3.86632000
  O      0.67303100     -3.40680000     -5.00779000
  C     -2.98310000      4.09334000      0.62876100
  O     -3.70493000      5.16686000      0.74830000
  C      1.92912000     -3.82010000      2.02052000
  O      2.32099000     -4.80060000      2.77706000
  C      2.32110000      4.63290000     -1.30539000
  O      2.93565000      5.78123000     -1.69227000
  C      3.67962000     -2.02694000      3.16268000
  O      4.66188000     -2.43274000      3.99687000
  C     -3.04964000     -2.44394000     -3.68079000
  O     -3.73637000     -3.06970000     -4.69704000
  C     -0.75616000      2.53376000     -4.08545000
  O     -1.09940000      3.35661000     -5.02428000
  C      4.72221000     -0.64799900     -1.71021000
  O      6.03073000     -0.77051900     -1.99752000
  C      4.74014000      0.55643300      1.36112000
  O      6.07578000      0.61760000      1.39708000
  C      4.63011000     -3.07956000      0.07997510
  O      5.66676000     -3.84099000      0.29193000
  C      2.90594000     -0.31338500     -4.16745000
  O      3.60171000     -0.47672500     -5.29497000
  C     -3.12421000      0.42285900     -4.44131000
  O     -3.84244000      0.50177800     -5.50637000
  C     -4.71475000      1.74147000      0.33680800
  O     -5.97342000      2.06704000      0.35028800
  C     -3.63918000     -3.40573000     -0.70213200
  O     -4.49460000     -4.35663000     -0.91127200
  C      3.62991000      3.85285000      1.05534000
  O      4.63301000      4.66006000      1.42293000

