110
Energy = -12756.35578670 au
 Ni     -0.86653500     -3.38050000     -2.11908000
 Ni     -1.94917000     -0.18448600     -0.38873700
 Ni      0.59932000     -4.10211000     -0.04935360
 Ni     -1.03103000      4.17849000      0.28497200
 Ni     -2.38605000      2.51940000     -1.40886000
 Ni     -2.84123000      0.38342700      2.33767000
 Ni     -0.43804500     -0.79663700      1.62811000
 Ni      0.46587400      3.57087000      2.24389000
 Ni     -1.36676000     -0.89826500     -2.94733000
 Ni      2.60075000     -0.16531500     -1.93878000
 Ni      0.31795600     -1.44507000     -0.80342400
 Ni      1.11911000     -1.99973000     -3.19570000
 Ni      2.04446000      2.37639000     -2.64044000
 Ni      3.04181000     -0.21578100      2.57540000
 Ni      1.57594000      0.44859300      0.52566200
 Ni      0.86092600      0.45167600     -3.94249000
 Ni     -0.25565400      3.62840000     -2.16626000
 Ni     -3.22341000     -2.04191000     -1.71959000
 Ni      3.89870000     -0.80976400      0.10818700
 Ni     -1.77592000     -3.04266000      0.29930600
 Ni      3.61868000      1.78286000     -0.66837600
 Ni      0.05640700      1.05505000     -1.52183000
 Ni     -3.63228000      0.40822200     -2.35433000
 Ni     -4.00081000     -1.39658000      0.60920700
 Ni      2.85072000      2.31921000      1.89671000
 Ni      0.84371700      1.29211000      3.29785000
 Ni      2.61522000     -2.69950000     -1.16332000
 Ni     -0.36938000     -3.39967000      2.38284000
 Ni     -3.06060000      2.90514000      1.28331000
 Ni      1.48025000      3.00951000     -0.16185800
 Ni     -1.54305000      2.46378000      3.32537000
 Ni     -1.31360000     -0.15971000      4.15768000
 Ni     -1.56787000      1.77610000     -3.62534000
 Ni     -0.71326500      1.69292000      0.88981200
 Ni     -2.58152000     -1.99550000      2.66554000
 Ni      1.04342000     -1.33654000      3.78427000
 Ni     -4.22143000      1.13927000      0.00847442
 Ni      1.89298000     -2.12198000      1.21721000
  C     -2.56241000      1.22253000      4.26494000
  O     -3.32013000      1.49077000      5.28489000
  C      4.64238000     -2.40651000      0.74757400
  O      5.82977000     -2.87170000      1.04608000
  C      1.38995000      4.64236000     -1.85720000
  O      1.89548000      5.88126000     -2.12953000
  C      0.01227250     -2.92895000      4.38360000
  O     -0.01894380     -3.61230000      5.55153000
  C     -4.96815000     -1.51404000      2.27670000
  O     -6.17525000     -2.01257000      2.56064000
  C     -4.98273000     -0.25293800     -1.03681000
  O     -6.25616000     -0.25213900     -1.28956000
  C     -1.72037000     -3.28058000     -3.79907000
  O     -2.16057000     -4.07006000     -4.77349000
  C      2.88203000      2.80678000      3.72004000
  O      3.63848000      3.45440000      4.58508000
  C      3.56745000      3.27953000      0.43613400
  O      4.44623000      4.23045000      0.44266000
  C     -1.00191000     -4.72546000     -0.79988000
  O     -1.34105000     -5.96327000     -0.95484000
  C      4.73923000      0.37254700     -1.13073000
  O      5.96630000      0.44079400     -1.53037000
  C      2.45728000     -4.59789000     -0.11729500
  O      3.11962000     -5.78699000     -0.09416150
  C      1.30567000     -4.07266000     -2.82889000
  O      1.67452000     -5.11035000     -3.63647000
  C      2.62953000     -2.93697000      2.96446000
  O      3.40889000     -3.91272000      3.42856000
  C     -3.38319000      2.06224000     -3.16583000
  O     -4.27349000      2.67413000     -3.88334000
  C      4.70396000      0.74091500      1.80532000
  O      5.96967000      0.91458000      2.31369000
  C      4.14903000     -2.41610000     -2.22326000
  O      5.07276000     -3.10889000     -2.85664000
  C     -2.68897000     -1.39542000      4.41641000
  O     -3.41069000     -1.77150000      5.44780000
  C     -3.96320000      2.99627000     -0.40510700
  O     -4.88122000      3.85559000     -0.71294900
  C      1.25568000      2.24256000     -4.66993000
  O      1.56255000      2.71945000     -5.89994000
  C      1.05904000      5.08596000      1.20433000
  O      1.55673000      6.29930000      1.53935000
  C     -1.32000000      3.62749000     -3.70629000
  O     -1.61720000      4.53837000     -4.56008000
  C      3.92903000      2.76578000     -2.74252000
  O      4.77594000      3.47997000     -3.47235000
  C     -4.29815000      1.52797000      1.86367000
  O     -5.39064000      1.70875000      2.54179000
  C      0.08673300      3.13232000      4.02771000
  O      0.17419500      3.89105000      5.06309000
  C      0.40187800     -5.09426000      1.87186000
  O      0.41400000     -6.33996000      2.40892000
  C     -1.38065000      0.40951600     -4.97723000
  O     -1.87550000      0.26326400     -6.24435000
  C      0.40063500      0.18794800      4.82847000
  O      0.57995500      0.49085400      6.08175000
  C      3.11494000     -0.54697500      4.50604000
  O      3.96719000     -0.66634000      5.51094000
  C      3.05913000     -0.29782100     -4.01382000
  O      4.11314000     -0.31982300     -4.83735000
  C     -2.00995000      4.16013000      2.23598000
  O     -2.53316000      5.19612000      2.81091000
  C     -1.83486000      5.17957000     -1.26501000
  O     -2.09466000      6.49639000     -1.29109000
  C     -3.65361000     -1.23443000     -3.34225000
  O     -4.52017000     -1.54702000     -4.23733000
  C     -3.97808000     -3.51576000     -0.70476300
  O     -4.84071000     -4.51462000     -1.01180000
  C      0.68662000     -1.46964000     -5.05252000
  O      0.94762000     -1.93989000     -6.28814000
  C     -2.37659000     -3.75185000      1.96032000
  O     -3.14903000     -4.74849000      2.25802000
