110
Energy = -12256.65182680 au
 Ni      0.99466100     -2.96480000     -1.99118000
 Ni     -1.55417000     -0.40806900     -0.59527400
 Ni      2.06116000     -3.51539000      0.43171800
 Ni     -2.40227000      3.93530000      0.48342900
 Ni     -2.63289000      2.18912000     -1.36748000
 Ni     -3.48889000     -0.48387600      1.54455000
 Ni     -0.55763600     -0.77425200      1.75675000
 Ni     -1.46312000      3.68619000      2.71466000
 Ni      0.03378960     -0.45251200     -2.76100000
 Ni      2.81042000      1.16479000     -0.79173600
 Ni      1.01751000     -0.84580500     -0.32352900
 Ni      2.64927000     -0.78248900     -2.48970000
 Ni      1.85293000      3.54969000     -1.49055000
 Ni      2.16684000      0.85987000      3.69762000
 Ni      1.11776000      1.16686000      1.34117000
 Ni      1.78784000      1.50824000     -3.25480000
 Ni     -0.73319800      4.02914000     -1.65941000
 Ni     -1.68079000     -2.47369000     -2.28633000
 Ni      3.69668000      0.82930300      1.65659000
 Ni     -0.65537600     -2.85687000      0.09755160
 Ni      2.90658000      3.12795000      0.95559300
 Ni      0.12344800      1.53249000     -1.02285000
 Ni     -2.60888000     -0.03055930     -3.07484000
 Ni     -3.34267000     -2.52285000     -0.15120000
 Ni      1.34001000      3.21599000      2.91734000
 Ni     -0.37585700      1.27199000      3.58631000
 Ni      3.73908000     -1.29461000     -0.08267470
 Ni      0.43236800     -3.33789000      2.53985000
 Ni     -3.94332000      2.15307000      0.85074500
 Ni      0.20442300      3.81113000      0.68108300
 Ni     -3.02444000      1.61252000      3.21502000
 Ni     -2.16521000     -0.68613100      3.91050000
 Ni     -0.97044900      2.07570000     -3.52735000
 Ni     -1.43210000      1.58235000      1.05947000
 Ni     -2.24974000     -2.77749000      2.20222000
 Ni      0.46202500     -1.13477000      4.20127000
 Ni     -4.20513000      0.01092180     -0.77545500
 Ni      2.03015000     -1.28061000      2.02063000
  C     -2.42436000      1.28303000     -4.71796000
  O     -2.91680000      1.48299000     -5.95679000
  C     -2.10739000      3.41246000     -2.80768000
  O     -2.91526000      4.17486000     -3.48461000
  C      0.44886900      0.42855100      5.64795000
  O      1.15466000      0.74837100      6.73920000
  C     -3.99843000     -2.82742000      1.62921000
  O     -4.96485000     -3.52302000      2.07720000
  C      1.97509000     -4.69594000      1.92700000
  O      2.42341000     -5.90499000      2.33464000
  C     -4.05536000      3.63509000     -0.28300100
  O     -4.96975000      4.49474000     -0.57004100
  C     -5.06533000      0.67634500      0.75437600
  O     -6.30720000      0.69670400      1.12487000
  C      2.86634000     -4.60386000     -1.25578000
  O      3.46347000     -5.66231000     -1.58194000
  C     -3.00816000     -1.89128000     -3.61185000
  O     -3.77365000     -2.48426000     -4.55741000
  C     -4.85147000     -1.74816000     -0.99567400
  O     -6.12211000     -2.20251000     -1.30857000
  C      2.38713000     -2.28672000     -3.77505000
  O      3.05168000     -2.85659000     -4.73493000
  C     -0.01260240      5.88781000     -1.04763000
  O      0.01892920      6.98611000     -1.72801000
  C      4.35410000      0.96049600     -2.14557000
  O      5.48559000      1.47706000     -2.58542000
  C      3.89303000     -3.38176000      1.76700000
  O      5.11120000     -3.81117000      1.80186000
  C     -1.22845000     -4.66804000      2.55328000
  O     -1.54727000     -5.82535000      3.16915000
  C     -1.90359000      1.02385000      4.68999000
  O     -1.98944000      1.38234000      5.93620000
  C     -0.43500700      3.76954000      4.43075000
  O     -0.22514200      4.74737000      5.33250000
  C      4.46769000      3.27935000     -0.52170700
  O      5.46885000      4.00892000     -0.10987400
  C      5.32005000      0.27748400      0.38401700
  O      6.57198000      0.29044100      0.85208200
  C     -3.89243000     -0.14197300      3.36287000
  O     -5.03116000     -0.46582000      3.89899000
  C      2.55151000      3.97415000     -3.65243000
  O      3.40802000      4.92726000     -3.79108000
  C      1.79073000      4.59890000      1.29847000
  O      2.00292000      5.87180000      1.42576000
  C      1.82549000     -3.07991000      4.02853000
  O      2.10055000     -3.61304000      5.23267000
  C     -2.91845000     -4.87562000     -1.08583000
  O     -3.77506000     -5.76543000     -1.45663000
  C      3.14496000      2.43394000      3.12998000
  O      4.03516000      2.98232000      3.90846000
  C     -4.56192000      1.18035000     -2.50123000
  O     -5.68861000      1.55923000     -3.15355000
  C      3.51167000     -0.72630700      3.76091000
  O      4.60023000     -1.12837000      4.43894000
  C      2.27583000      0.40639700     -5.00454000
  O      3.15088000      0.66995200     -5.90912000
  C     -0.17280500     -4.98975000     -0.66410000
  O     -0.33134800     -6.24633000     -0.61674100
  C      5.32311000     -2.23930000     -0.95838600
  O      6.15716000     -2.34410000     -1.89693000
  C     -1.44197000     -2.41204000      4.78256000
  O     -1.81113000     -2.95045000      5.95398000
  C     -0.14745700     -1.13210000     -4.83176000
  O     -0.03865800     -1.19304000     -6.07118000
  C      0.44355300      3.78750000     -4.73536000
  O      0.46183100      4.10599000     -5.98494000
  C     -1.28758000      5.04192000      1.44533000
  O     -1.38744000      6.32239000      1.60605000
  C     -3.33977000      3.40823000      2.73190000
  O     -4.12285000      4.18836000      3.41706000
  C     -0.08099040     -4.65446000     -3.75614000
  O     -0.19532900     -5.50555000     -4.71597000
