110
Energy = -12486.57822814 au
 Ni     -2.96315000     -1.09403000     -3.12804000
 Ni     -0.49856400      1.27077000     -1.63636000
 Ni     -4.13234000     -1.31238000     -0.77700500
 Ni      3.59836000      1.58459000      0.54928900
 Ni      2.11721000      1.52377000     -1.74666000
 Ni     -0.74686600      3.63911000     -0.08760120
 Ni     -1.69825000      1.13324000      0.63836300
 Ni      2.30997000      1.56030000      2.82172000
 Ni     -0.26644400     -0.91846700     -3.39419000
 Ni     -0.00339984     -3.05226000     -0.22113000
 Ni     -1.55999000     -0.94791900     -0.90823700
 Ni     -1.44855000     -3.02462000     -2.49951000
 Ni      2.61571000     -2.84168000     -0.31738800
 Ni     -1.37777000     -1.01143000      3.54889000
 Ni     -0.18572800     -0.86488000      1.30602000
 Ni      1.23149000     -2.82272000     -2.68693000
 Ni      3.70548000     -0.49841500     -0.94934500
 Ni     -1.91373000      1.16704000     -3.92529000
 Ni     -1.37107000     -3.16588000      2.09146000
 Ni     -3.28495000      1.07386000     -1.70808000
 Ni      1.28486000     -2.92575000      1.97122000
 Ni      1.02212000     -0.72605100     -0.96978500
 Ni      0.62994900      1.44354000     -3.99445000
 Ni     -2.04984000      3.20866000     -2.33192000
 Ni      1.30623000     -0.79387300      3.58518000
 Ni     -0.32039100      1.34872000      2.96073000
 Ni     -2.64413000     -3.21491000     -0.21981900
 Ni     -4.27261000      1.03510000      0.71113300
 Ni      1.98673000      3.59724000     -0.17339800
 Ni      2.50766000     -0.64861000      1.30053000
 Ni      0.65481800      3.59555000      2.06633000
 Ni     -1.87949000      3.27842000      2.28949000
 Ni      2.29435000     -0.51043900     -3.26622000
 Ni      0.89634300      1.37868000      0.56920300
 Ni     -3.19473000      3.24306000     -0.00135250
 Ni     -2.99711000      1.14532000      2.90057000
 Ni      0.47183100      3.48803000     -2.45128000
 Ni     -2.90097000     -1.20805000      1.40384000
  C      3.94946000     -1.65679000     -2.69056000
  O      5.03658000     -2.06477000     -3.40538000
  C     -2.08349000      4.64684000     -1.13493000
  O     -2.34566000      5.86357000     -1.47080000
  C      4.56241000      2.23637000      2.05136000
  O      5.73493000      2.78279000      2.31696000
  C      3.69326000      3.35186000     -1.28005000
  O      4.66368000      4.14015000     -1.76100000
  C     -0.40906300     -4.07980000     -3.75044000
  O     -0.61538600     -5.18608000     -4.47038000
  C     -3.77424000      3.15761000      1.85287000
  O     -4.65526000      4.00244000      2.29093000
  C      3.14513000      1.16422000     -3.71175000
  O      4.07548000      1.64346000     -4.53298000
  C      2.50765000      1.70909000      4.69584000
  O      3.35075000      2.30121000      5.47240000
  C      2.65934000     -4.17261000      2.68401000
  O      3.14775000     -5.09481000      3.38920000
  C     -1.73604000     -1.21349000     -4.52868000
  O     -1.88672000     -1.58723000     -5.75483000
  C      2.59239000      4.23668000      1.76340000
  O      3.08697000      5.40346000      2.27576000
  C      4.56461000     -0.79298200      1.73996000
  O      5.58796000     -1.17599000      2.40474000
  C      1.41262000     -1.82507000     -4.39639000
  O      1.73054000     -2.16582000     -5.55137000
  C      5.25572000      0.67588100     -0.78761800
  O      6.54569000      0.68379800     -1.08440000
  C     -3.07890000     -1.83782000      3.83104000
  O     -3.86386000     -2.19560000      4.84225000
  C     -0.88235700      4.70202000      1.54865000
  O     -1.13358000      5.95645000      1.75279000
  C      2.99464000     -1.33059000      4.23734000
  O      3.56167000     -1.56536000      5.36806000
  C     -4.87342000      0.01892360      2.65619000
  O     -6.17604000      0.23637300      2.92352000
  C     -3.59465000     -2.76792000     -2.27705000
  O     -4.45794000     -3.51853000     -2.89050000
  C     -0.17919400      0.20094000      5.05249000
  O     -0.20257800      0.38728800      6.38858000
  C      1.41485000      3.58224000     -4.22186000
  O      1.56587000      4.63673000     -5.01892000
  C     -3.78622000      0.55957300     -3.49877000
  O     -4.84264000      0.72962200     -4.22815000
  C      0.00577740      0.64311900     -5.66192000
  O      0.23617800      1.14121000     -6.86604000
  C     -1.91282000     -4.86575000     -0.85439300
  O     -2.49131000     -6.07162000     -0.89644200
  C     -4.01412000     -2.77368000      1.02329000
  O     -4.98799000     -3.44393000      1.49302000
  C      0.02727330     -2.73120000      4.18457000
  O      0.05336170     -3.41063000      5.36909000
  C     -1.88054000      3.02416000     -4.15963000
  O     -2.33151000      3.75116000     -5.13246000
  C      2.29707000     -4.36764000     -2.14043000
  O      2.85113000     -5.36537000     -2.80347000
  C     -1.65077000     -5.02248000      2.24764000
  O     -1.95562000     -5.93228000      3.10393000
  C     -2.64934000      1.95243000      4.58449000
  O     -3.42344000      2.31593000      5.57634000
  C      4.43231000     -3.11724000      0.12998400
  O      5.31070000     -4.05965000      0.05190260
  C     -5.73044000      0.26443000     -0.79317700
  O     -6.91188000     -0.34594400     -0.95001300
  C      1.00403000     -4.79664000      0.31900700
  O      1.03128000     -6.11595000      0.25890100
  C     -0.24650800      3.16362000      3.71601000
  O     -0.20775200      3.77733000      4.80122000
  C     -4.43897000      2.45847000     -1.15583000
  O     -5.54361000      2.93839000     -1.61869000
  C      0.72448200      5.24870000     -1.12738000
  O      1.11366000      6.54893000     -1.14966000
