#B3LYP/6-31+G(d) OPT FREQ

110, Energy = -12466.76184914 au

0 1
 Ni     -1.80625000     -2.72201000     -2.49428000
 Ni     -0.33170000      0.49743300     -1.15793000
 Ni     -3.36933000     -2.85476000     -0.29672700
 Ni      3.04714000      2.34291000      1.50883000
 Ni      2.07559000      1.48342000     -0.91583800
 Ni     -1.32886000      2.76806000     -0.14825900
 Ni     -1.85569000      0.35058400      0.91800600
 Ni      1.49880000      2.12460000      3.39722000
 Ni      0.67543800     -1.69443000     -2.36247000
 Ni      0.93417600     -3.22468000      1.13150000
 Ni     -0.90614100     -1.80728000     -0.14707900
 Ni      0.01929200     -3.99023000     -1.18115000
 Ni      3.44239000     -2.06089000      1.36671000
 Ni     -1.56587000     -1.15230000      4.35133000
 Ni     -0.02985010     -0.98186100      2.15879000
 Ni      2.54363000     -3.02050000     -1.05853000
 Ni      3.99793000      0.10435000      0.41926400
 Ni     -1.21424000     -0.35244500     -3.55032000
 Ni     -0.61818000     -3.35961000      3.19123000
 Ni     -2.83908000     -0.46144500     -1.43305000
 Ni      1.75548000     -2.17481000      3.55710000
 Ni      1.48939000     -0.83192100      0.08048840
 Ni      1.22878000      0.63606300     -3.36255000
 Ni     -2.25253000      1.84806000     -2.48965000
 Ni      0.83473500     -0.25619300      4.47667000
 Ni     -1.04011000      1.22036000      3.40000000
 Ni     -1.45883000     -4.15535000      0.97914400
 Ni     -4.29410000     -0.71093400      0.60187500
 Ni      1.10324000      3.77505000      0.03674810
 Ni      2.58420000      0.00709417      2.55023000
 Ni     -0.48471400      3.55304000      2.20169000
 Ni     -2.90366000      2.56389000      1.96128000
 Ni      3.06485000     -0.70452800     -2.10528000
 Ni      0.54325400      1.32590000      1.13795000
 Ni     -3.77008000      1.61452000     -0.36804000
 Ni     -3.36789000      0.22127900      3.04025000
 Ni      0.22020500      2.96999000     -2.20235000
 Ni     -2.65603000     -2.04932000      2.04198000
  C      1.51172000      2.89825000     -3.85650000
  O      1.86733000      3.66333000     -4.86192000
  C      4.86282000      1.97239000      0.57912400
  O      6.10443000      2.39933000      0.79732100
  C      1.79198000     -5.00512000     -0.68008800
  O      2.18527000     -6.27350000     -0.92377800
  C      2.55495000     -0.86998100      4.64181000
  O      3.21640000     -0.85380700      5.75547000
  C     -3.25544000      4.42922000      1.13629000
  O     -4.19614000      5.18153000      1.61387000
  C      3.15703000      0.27873000     -4.09027000
  O      3.95677000      0.38425100     -5.14339000
  C      0.04595510     -4.70566000      2.04270000
  O      0.36512000     -5.91563000      2.39163000
  C     -2.41099000     -3.80756000      2.61160000
  O     -3.23418000     -4.56451000      3.27546000
  C     -0.09071350      5.50565000      1.71815000
  O     -0.25448400      6.59937000      2.40997000
  C      1.59070000      4.86979000     -1.56339000
  O      1.91567000      6.11474000     -1.86569000
  C     -1.45478000      4.61417000     -1.11146000
  O     -1.88200000      5.77037000     -1.22138000
  C     -0.34430500      0.67533300     -5.00916000
  O     -0.43027600      0.85935600     -6.32175000
  C     -4.59402000     -2.56616000      1.03078000
  O     -5.73618000     -3.06384000      1.36089000
  C     -0.47495300     -4.21421000     -3.14252000
  O     -0.58436500     -5.35421000     -3.85542000
  C     -2.16775000     -2.13185000     -4.37807000
  O     -2.68938000     -2.59837000     -5.53089000
  C     -0.06617110     -2.37335000      4.83963000
  O     -0.12209200     -3.11677000      5.90966000
  C      0.18242100      3.20096000      4.49831000
  O      0.39568000      4.00130000      5.55953000
  C     -2.56398000      2.23449000      3.71871000
  O     -3.01983000      2.81965000      4.77219000
  C     -4.68424000      1.06960000      1.57218000
  O     -5.90048000      1.31840000      1.93996000
  C      3.78688000      2.75933000     -2.10353000
  O      4.82656000      3.41076000     -2.49087000
  C      4.33543000     -3.26075000     -0.05607800
  O      5.32124000     -4.15688000      0.06941080
  C      0.95899800     -1.78056000     -4.38990000
  O      1.27035000     -2.42964000     -5.51751000
  C      2.55822000      4.37085000      1.49498000
  O      3.32733000      5.43993000      1.70932000
  C      4.55898000     -0.77689100      2.04222000
  O      5.67740000     -0.89595100      2.68121000
  C      3.29438000      1.90632000      3.30887000
  O      4.18628000      2.25078000      4.17848000
  C     -3.85304000     -2.85445000     -2.40671000
  O     -4.78106000     -3.74962000     -2.80253000
  C     -3.40673000     -1.25137000      4.13661000
  O     -4.30498000     -1.52563000      5.02318000
  C      3.26886000     -2.87778000     -2.93521000
  O      4.10354000     -3.63884000     -3.64014000
  C     -1.60909000      3.33319000     -3.60274000
  O     -2.02709000      4.16252000     -4.53129000
  C     -2.17738000     -4.81427000     -0.87739500
  O     -2.61845000     -6.03270000     -0.78072900
  C     -4.79718000     -0.10335000     -1.12135000
  O     -5.93873000     -0.23489200     -1.71562000
  C      4.95109000     -0.49851800     -1.40601000
  O      6.19111000     -0.63799700     -1.83736000
  C      2.98286000     -3.87462000      2.64878000
  O      3.57427000     -4.54217000      3.64633000
  C     -3.39856000      0.59168200     -3.80968000
  O     -4.26719000      0.78432600     -4.79487000
  C     -0.81108300      0.33382100      5.15055000
  O     -0.92520400      0.65107400      6.41028000
  C     -4.00674000      3.21977000     -1.69703000
  O     -5.14426000      3.73446000     -2.02148000

