110
Energy = -12632.99940909 au
 Ni      2.69164000     -2.05985000     -2.98970000
 Ni     -0.46748200     -2.01711000     -1.13815000
 Ni      4.05692000     -1.41797000     -0.85251500
 Ni     -4.04073000      0.42800700      0.16640800
 Ni     -3.06322000     -1.17444000     -1.60678000
 Ni     -1.25920000     -2.95545000      1.27293000
 Ni      0.81010000     -1.29242000      0.98573900
 Ni     -2.85118000      1.18843000      2.38901000
 Ni      0.42794500     -1.30834000     -3.80687000
 Ni      1.38254000      2.05806000     -1.96476000
 Ni      1.59150000     -0.47243900     -1.31828000
 Ni      2.38355000      0.42422600     -3.64648000
 Ni     -1.25511000      2.96831000     -2.57955000
 Ni      1.84224000      1.99126000      2.54176000
 Ni      0.47439900      1.18080000      0.35022100
 Ni     -0.05445640      1.26027000     -4.20533000
 Ni     -3.28268000      1.37343000     -2.44924000
 Ni      0.69288900     -3.70051000     -2.79051000
 Ni      2.55661000      2.81476000      0.22693100
 Ni      2.12833000     -3.09373000     -0.67565600
 Ni      0.08000870      3.77788000     -0.24723000
 Ni     -0.81500000      0.46461800     -1.79480000
 Ni     -1.81383000     -2.64853000     -3.24306000
 Ni     -0.08164890     -4.50049000     -0.55969300
 Ni     -0.63775800      2.97959000      2.08791000
 Ni     -0.34066900      0.36685300      2.78221000
 Ni      3.75171000      1.15757000     -1.57181000
 Ni      3.33469000     -2.31690000      1.37895000
 Ni     -3.70144000     -1.98360000      0.77282600
 Ni     -2.02858000      2.20023000     -0.09882710
 Ni     -2.50298000     -1.22579000      2.90756000
 Ni      0.00849222     -2.22488000      3.39213000
 Ni     -2.07674000     -0.21121000     -3.99067000
 Ni     -1.59962000     -0.37699700      0.54384000
 Ni      1.09446000     -3.77347000      1.64078000
 Ni      2.12410000     -0.58958200      3.20427000
 Ni     -2.50947000     -3.59692000     -0.83731500
 Ni      3.10394000      0.30675600      0.78296400
  C     -0.06092100      0.36483700      4.89845000
  O     -0.28849000      0.59478100      6.12273000
  C      2.68428000      0.98385700      4.16862000
  O      3.40742000      1.27448000      5.27883000
  C     -0.35200800      5.15204000      1.06593000
  O     -0.41501400      6.45211000      1.23489000
  C     -4.54868000      2.12582000      1.34780000
  O     -5.78017000      2.52486000      1.70384000
  C     -4.62754000     -2.72101000     -1.05255000
  O     -5.16055000     -3.85745000     -1.42219000
  C     -1.92793000      1.61301000     -4.44273000
  O     -2.36077000      2.02565000     -5.59899000
  C     -1.23874000     -4.49798000     -2.50737000
  O     -1.60448000     -5.48289000     -3.26816000
  C      2.39055000      4.00713000      1.89652000
  O      3.06015000      5.05189000      2.40123000
  C      4.18798000     -3.11723000     -0.12482100
  O      5.21059000     -3.88725000     -0.31484600
  C      1.13047000      0.00005936     -5.01834000
  O      1.50113000     -0.20565300     -6.24771000
  C     -0.13249000     -4.34169000      2.94463000
  O     -0.30130300     -5.34909000      3.72768000
  C     -2.82737000      4.05030000     -0.27513300
  O     -3.76322000      4.91718000     -0.24465900
  C      1.47583000      4.56036000     -1.44315000
  O      1.84239000      5.74589000     -1.91038000
  C     -2.37175000      3.55954000      2.72898000
  O     -2.86902000      4.53514000      3.47053000
  C      4.21093000      1.66052000      1.90255000
  O      5.43433000      1.93574000      2.33686000
  C     -4.28719000     -0.99767500      2.29039000
  O     -5.38361000     -1.26326000      2.92132000
  C      0.98311500      2.99056000     -4.05511000
  O      1.45066000      3.80144000     -5.03867000
  C      1.70976000     -2.17105000      4.51977000
  O      2.15728000     -2.67223000      5.68646000
  C      3.72867000      1.66053000     -3.35790000
  O      4.61493000      2.17287000     -4.13666000
  C      4.11754000      3.18611000     -0.92562700
  O      5.10657000      4.10033000     -1.01782000
  C      1.58769000     -4.77459000     -1.47013000
  O      2.28426000     -5.85274000     -1.67060000
  C     -5.17644000     -1.09591000     -0.80505500
  O     -6.42477000     -0.82702200     -1.00138000
  C     -2.94761000      0.89480700      4.29634000
  O     -3.78708000      1.23392000      5.24695000
  C     -1.17592000     -1.67086000     -4.75710000
  O     -1.26321000     -2.05662000     -5.99617000
  C      3.13329000     -4.26249000      1.85886000
  O      3.71331000     -5.34207000      2.43370000
  C     -4.68150000      2.61982000     -2.63830000
  O     -5.72620000      2.96126000     -3.28058000
  C     -1.70411000     -2.08652000      4.64877000
  O     -2.21516000     -2.69184000      5.72848000
  C      5.03414000      0.15127200     -0.63962100
  O      6.31894000      0.26574400     -0.63980800
  C      0.48817000      3.14084000      3.85832000
  O      0.59446400      4.01121000      4.86375000
  C      1.57441000     -2.86173000     -4.28636000
  O      1.84727000     -3.62009000     -5.30177000
  C     -1.51061000      4.79886000     -2.90973000
  O     -1.95387000      5.72540000     -3.66727000
  C      4.55227000     -1.11546000     -3.04313000
  O      5.40835000     -1.60602000     -3.99676000
  C     -3.03674000     -3.52695000      1.60281000
  O     -3.57250000     -4.54949000      2.17911000
  C     -1.57923000     -5.45359000      0.76591900
  O     -1.40021000     -6.73763000      0.48708300
  C      4.33368000     -1.27668000      2.69733000
  O      5.44579000     -1.68194000      3.34329000
  C     -3.65711000     -0.99637200     -3.37352000
  O     -4.72499000     -1.35773000     -4.00214000
