110
Energy = -11803.37085149 au
 Ni     -3.76791000     -0.48319900     -1.85179000
 Ni     -0.82903000      1.54923000     -0.83596500
 Ni     -4.15545000     -1.21858000      0.59016500
 Ni      3.70308000      1.55486000     -0.24228800
 Ni      1.56310000      1.90737000     -1.73630000
 Ni     -0.33925800      3.21266000      1.07786000
 Ni     -1.17185000      0.81600200      1.59346000
 Ni      3.29024000      0.81972000      2.22017000
 Ni     -1.33027000     -0.08797440     -2.75192000
 Ni     -0.12555900     -2.81752000     -0.71977400
 Ni     -1.69056000     -0.82315700     -0.32139400
 Ni     -2.17908000     -2.48076000     -2.27118000
 Ni      2.29309000     -2.47712000     -1.65297000
 Ni      0.02464260     -1.94828000      3.65662000
 Ni      0.36648700     -1.19038000      1.19336000
 Ni      0.23124700     -2.11298000     -3.19264000
 Ni      3.14538000     -0.08915160     -2.16546000
 Ni     -2.89352000      1.95087000     -2.37470000
 Ni     -0.47217300     -3.60825000      1.73620000
 Ni     -3.23320000      1.18417000      0.07686420
 Ni      1.94063000     -3.22549000      0.81098900
 Ni      0.70921200     -0.45833000     -1.23303000
 Ni     -0.49926400      2.32589000     -3.28587000
 Ni     -2.40038000      3.58789000     -0.46298600
 Ni      2.43845000     -1.56842000      2.75245000
 Ni      0.88006600      0.44708300      3.13154000
 Ni     -2.56556000     -3.19291000      0.18713300
 Ni     -3.59711000      0.46430900      2.52087000
 Ni      2.07222000      3.57722000      0.17536800
 Ni      2.76076000     -0.81688700      0.28091000
 Ni      1.69687000      2.84191000      2.63198000
 Ni     -0.70005900      2.46969000      3.54873000
 Ni      1.07966000      0.27778600     -3.69326000
 Ni      1.22625000      1.17892000      0.67918400
 Ni     -2.74423000      2.83812000      2.02000000
 Ni     -1.54128000      0.08670220      4.05084000
 Ni     -0.00407341      3.96343000     -1.36030000
 Ni     -2.03873000     -1.56960000      2.10383000
  C     -0.25477700     -5.43697000      2.76442000
  O     -0.50973700     -6.55433000      3.27970000
  C     -5.24365000      0.65102300     -3.14194000
  O     -6.35971000      0.27167300     -3.62576000
  C      4.17719000     -3.05889000     -0.81692300
  O      5.09932000     -3.92084000     -1.16032000
  C      0.79383100      5.22802000      0.01037570
  O      0.96879600      6.48946000     -0.17362500
  C     -2.40391000      2.12445000     -4.59471000
  O     -3.30185000      2.74073000     -5.32536000
  C      0.16421800      1.50836000     -5.32000000
  O      0.22019000      2.11241000     -6.48205000
  C      3.06535000     -3.72825000      2.47694000
  O      3.76245000     -4.91581000      2.78601000
  C      3.27976000     -0.20856400      3.97974000
  O      4.06493000     -0.32232600      4.99332000
  C      3.03857000      1.54835000     -3.64189000
  O      3.89175000      1.96544000     -4.65543000
  C      4.92585000      2.02641000      1.50198000
  O      6.10992000      2.30641000      2.24889000
  C     -2.21897000     -0.99774400     -4.38776000
  O     -2.78420000     -1.23011000     -5.52504000
  C      3.79888000      3.37929000     -1.26633000
  O      4.84203000      4.27501000     -1.47096000
  C      4.63316000     -1.40744000      1.41331000
  O      5.81676000     -1.77313000      1.79685000
  C     -3.64177000     -0.89202500      4.13783000
  O     -4.75909000     -0.77751000      4.82750000
  C     -1.86401000     -2.52217000      3.95540000
  O     -2.31188000     -3.13509000      4.99333000
  C      0.16880500     -0.03116490      5.24447000
  O     -0.13604700     -0.01820940      6.51497000
  C      3.09780000      4.24596000      1.74938000
  O      3.70470000      5.23068000      2.32770000
  C     -2.20015000      4.69864000      1.31212000
  O     -2.91449000      5.76569000      1.24967000
  C      1.61899000     -3.83249000     -3.08013000
  O      2.03463000     -4.84531000     -4.01564000
  C     -4.27237000      2.61964000     -1.00145000
  O     -5.34060000      3.27320000     -1.29790000
  C      1.59473000      2.07912000      4.46180000
  O      2.10556000      2.72334000      5.45136000
  C     -1.57700000     -4.84757000     -0.61061700
  O     -2.22765000     -6.10530000     -0.66658200
  C     -5.80960000      0.55390400      0.60653400
  O     -6.89081000     -0.20274500      0.76986000
  C     -1.72544000      4.26895000     -2.43470000
  O     -2.11107000      5.41253000     -2.88839000
  C      1.79387000     -2.81627000      4.31831000
  O      1.99635000     -3.34688000      5.48446000
  C     -0.15353000      4.31988000      2.79794000
  O     -0.21878800      5.38094000      3.52045000
  C     -2.58160000      2.10522000      4.30621000
  O     -2.94673000      2.70877000      5.38604000
  C      1.33956000      3.81702000     -3.17674000
  O      1.67268000      4.92510000     -3.90561000
  C      3.52284000     -1.61305000     -3.67688000
  O      4.53205000     -1.88098000     -4.47771000
  C     -4.00318000     -2.82711000     -1.46293000
  O     -4.96879000     -3.53641000     -1.94130000
  C      0.75565300     -1.39144000     -4.98305000
  O      0.96137400     -1.69875000     -6.31495000
  C      5.00648000      0.12730200     -1.29960000
  O      6.33214000      0.34185100     -1.53589000
  C     -3.77524000     -3.12227000      1.86301000
  O     -4.68116000     -3.98697000      2.15891000
  C      1.25791000     -4.84407000     -0.47580900
  O      1.54826000     -6.14121000     -0.56843900
  C     -1.11910000     -3.82042000     -3.58113000
  O     -1.60787000     -4.72722000     -4.35148000
  C     -4.68935000      2.06330000      1.78667000
  O     -5.55274000      2.77002000      2.42280000
