#B3LYP/6-31+G(d) OPT FREQ

110, Energy = -12213.92993590 au

0 1
 Ni     -2.86939000      1.40544000     -2.20692000
 Ni      0.72554500      1.57366000     -0.95431800
 Ni     -3.76028000      1.47554000      0.20292300
 Ni      4.40362000     -0.84563900      0.37282200
 Ni      3.07030000      0.34160100     -1.57597000
 Ni      2.00341000      3.14275000      0.89815900
 Ni     -0.12766300      1.59860000      1.46624000
 Ni      3.53826000     -0.77702200      2.73521000
 Ni     -0.50900400      0.18669500     -2.77011000
 Ni     -1.24830000     -2.36905000     -0.25242400
 Ni     -1.38030000      0.21273900     -0.32610400
 Ni     -2.65263000     -1.22350000     -2.19831000
 Ni      1.01350000     -3.59815000     -0.86167200
 Ni     -0.86742200     -0.95887700      3.99150000
 Ni      0.00397990     -0.96682800      1.52340000
 Ni     -0.41030200     -2.42492000     -2.78043000
 Ni      3.19465000     -2.15493000     -1.50333000
 Ni     -0.66060100      2.77780000     -2.86617000
 Ni     -2.15083000     -2.41962000      2.19644000
 Ni     -1.53496000      2.74686000     -0.40398600
 Ni      0.19122200     -3.62539000      1.67979000
 Ni      0.85923400     -0.98665700     -0.89763200
 Ni      1.59638000      1.59840000     -3.40832000
 Ni      0.63846200      4.19213000     -0.98823900
 Ni      1.39230000     -2.19735000      3.40431000
 Ni      1.29403000      0.43165400      3.41955000
 Ni     -3.51257000     -1.16258000      0.35511900
 Ni     -2.35316000      2.80989000      2.06659000
 Ni      4.21719000      1.78693000      0.21943900
 Ni      2.32388000     -2.22113000      1.01585000
 Ni      3.36335000      1.83429000      2.72700000
 Ni      1.08047000      3.00079000      3.29112000
 Ni      1.71689000     -1.03732000     -3.40254000
 Ni      2.09896000      0.39830900      0.88807700
 Ni     -0.24763400      4.19117000      1.41723000
 Ni     -0.97193500      1.64486000      3.93784000
 Ni      2.87137000      2.97437000     -1.60299000
 Ni     -2.26003000      0.21303700      2.11215000
  C     -1.02832000      3.88125000      3.30733000
  O     -1.14558000      4.85921000      4.14724000
  C      0.64431700      1.41629000      5.02094000
  O      0.88558800      1.60337000      6.27375000
  C     -3.51810000     -3.80439000      1.56440000
  O     -4.43631000     -4.43599000      2.20445000
  C      1.82657000      4.09085000     -3.20239000
  O      2.57738000      5.07619000     -3.76386000
  C      0.18778200      2.21073000     -4.89714000
  O      0.29353100      2.79508000     -6.08136000
  C     -4.26859000     -2.55362000     -1.03526000
  O     -5.39484000     -3.14405000     -1.30263000
  C     -4.35762000      2.08671000      2.26580000
  O     -5.17939000      3.00615000      2.81324000
  C     -5.54922000      0.84730700      0.01375130
  O     -6.82370000      0.52956300      0.25653600
  C     -1.98560000     -4.49686000     -0.75184300
  O     -2.59567000     -5.61060000     -0.88534600
  C      4.62395000     -2.09979000      1.90943000
  O      5.71357000     -2.61071000      2.36840000
  C      2.16337000     -3.67533000      2.47214000
  O      2.81590000     -4.64269000      3.02872000
  C      3.16185000     -2.40406000     -3.49773000
  O      4.00246000     -3.06833000     -4.33299000
  C      0.59343300     -4.20904000     -2.83562000
  O      0.68707000     -5.33016000     -3.59612000
  C      4.82640000     -1.11733000     -1.55390000
  O      6.08732000     -1.32217000     -1.75055000
  C      0.66638500     -5.18618000      0.25459500
  O      0.83785000     -6.52378000      0.25057400
  C     -4.40878000      0.23740000     -3.08528000
  O     -5.53337000      0.17785800     -3.74705000
  C      3.61301000      3.70213000      0.04391370
  O      4.37875000      4.74058000      0.17659500
  C     -1.92710000     -2.62018000      4.69822000
  O     -2.17092000     -2.81909000      5.96391000
  C     -4.22864000      3.21311000     -1.34107000
  O     -5.34907000      3.83703000     -1.49909000
  C     -2.79975000      0.69423200      4.66520000
  O     -3.33672000      1.12272000      5.77695000
  C     -1.03421000      4.83599000     -2.20375000
  O     -1.10271000      6.04099000     -2.79163000
  C      2.85820000      3.67364000      2.97315000
  O      3.38889000      4.46840000      3.84411000
  C      1.74603000     -1.67752000      5.25986000
  O      2.09539000     -2.26420000      6.34441000
  C      3.58979000      0.54344300      4.09968000
  O      4.42133000      0.55044900      5.08808000
  C     -2.45744000     -3.07712000     -3.60528000
  O     -3.03356000     -3.78910000     -4.51810000
  C      3.32785000     -3.97191000     -0.59755300
  O      4.23256000     -4.97358000     -0.72363400
  C     -1.88379000     -0.15678200     -4.71952000
  O     -2.31376000     -0.13040100     -5.91998000
  C      5.26880000      0.94616900      1.77177000
  O      6.53249000      1.48242000      1.91053000
  C     -4.26284000     -0.50503400      2.83101000
  O     -5.12774000     -0.63207000      3.60109000
  C      4.33324000      1.73836000     -1.88342000
  O      5.43218000      2.06039000     -2.48613000
  C     -2.47625000      2.84038000     -3.85657000
  O     -3.19591000      3.58307000     -4.68578000
  C      2.96290000      0.39339700     -4.32487000
  O      3.71929000      0.53236800     -5.45026000
  C      0.44552600     -1.70664000     -4.91301000
  O      0.58653100     -2.14364000     -6.14433000
  C     -0.62617000     -4.48380000      3.35328000
  O     -0.93917400     -5.60249000      3.88617000
  C      1.49153000      5.14477000      0.51723900
  O      1.47509000      6.39840000      0.81156300
  C     -2.18736000      4.81166000      0.68313000
  O     -2.85436000      5.97949000      0.74212200

