#B3LYP/6-31+G(d) OPT FREQ

110, Energy = -12266.11813525 au

0 1
 Ni      1.09225000     -4.27381000      0.49420300
 Ni      1.03605000     -1.15631000     -1.44761000
 Ni     -1.38472000     -4.08148000      0.89658100
 Ni      1.74490000      3.43915000     -1.13481000
 Ni      2.64722000      0.95671200     -1.58699000
 Ni     -0.49667300     -0.07218180     -3.32897000
 Ni     -1.47616000     -0.85526400     -0.88457800
 Ni     -0.84003100      3.76758000     -0.63694400
 Ni      2.64480000     -2.37856000      0.36023500
 Ni      0.70761400     -0.62860400      3.06791000
 Ni      0.08542990     -1.95019000      0.82986700
 Ni      1.67081000     -3.04759000      2.62865000
 Ni      2.32779000      1.42604000      2.91927000
 Ni     -3.47831000      0.86383600      1.87373000
 Ni     -0.86304000      0.43842000      1.26710000
 Ni      3.24158000     -0.96128000      2.51050000
 Ni      3.33300000      2.20141000      0.55176500
 Ni      1.91857000     -3.52692000     -1.93216000
 Ni     -1.81864000     -0.37847200      3.59950000
 Ni     -0.62371900     -3.51450000     -1.43807000
 Ni     -0.14806100      1.74890000      3.53801000
 Ni      1.67325000      0.11115900      0.71486200
 Ni      3.54060000     -1.48131000     -1.96061000
 Ni      0.51269100     -2.40317000     -3.67231000
 Ni     -1.79268000      3.02338000      1.77136000
 Ni     -2.54959000      1.65098000     -0.48277600
 Ni     -0.87876400     -2.77352000      3.13721000
 Ni     -3.15327000     -3.04757000     -0.86083100
 Ni      1.07633000      2.05070000     -3.31243000
 Ni      0.74003400      2.59326000      1.19714000
 Ni     -1.50457000      2.44143000     -2.79005000
 Ni     -3.09036000      0.24723700     -2.63038000
 Ni      4.26168000     -0.13152100      0.21360000
 Ni      0.08581310      1.24878000     -1.01974000
 Ni     -2.07692000     -2.14180000     -2.95427000
 Ni     -4.08702000     -0.62822800     -0.30196600
 Ni      2.02601000     -0.48565300     -3.82644000
 Ni     -2.52695000     -1.73827000      1.44998000
  C      4.56420000     -2.22263000      1.61500000
  O      5.73673000     -2.83941000      1.92638000
  C      1.98867000      3.89040000     -3.22364000
  O      2.43899000      4.85661000     -4.02786000
  C      3.15932000      1.07630000     -4.16984000
  O      4.04446000      1.32566000     -5.14651000
  C     -2.29494000     -1.31553000     -4.80440000
  O     -2.89697000     -1.72455000     -5.89249000
  C      5.25024000     -0.62060500     -1.49035000
  O      6.55827000     -0.85691000     -1.79339000
  C     -3.12463000     -4.96273000      0.36447800
  O     -3.43275000     -6.25090000      0.46492000
  C      2.05155000     -2.26465000      4.41468000
  O      2.42902000     -2.82435000      5.57512000
  C     -1.44340000      2.94471000      4.25682000
  O     -1.75660000      3.48635000      5.41143000
  C     -1.17578000     -1.57761000      5.09608000
  O     -1.56207000     -1.93031000      6.32323000
  C     -2.44820000     -3.85208000     -2.39733000
  O     -2.96543000     -4.84625000     -3.05530000
  C     -0.21557600      4.72344000      2.11943000
  O     -0.15436600      5.81996000      2.84200000
  C      0.51903200      0.65449200      5.13093000
  O      0.87434400      0.76759100      6.39835000
  C      5.29015000      1.24209000      1.28627000
  O      6.51740000      1.61814000      1.61061000
  C     -4.83041000     -0.75360000     -2.31564000
  O     -6.03642000     -0.82546900     -2.92430000
  C      0.67156600     -1.08888000     -4.94838000
  O      0.70559000     -1.23182000     -6.23512000
  C      4.05147000      0.28288200      3.81873000
  O      4.88476000      0.28552200      4.85498000
  C     -4.89055000     -2.96308000      0.17203700
  O     -6.03771000     -3.57939000     -0.04477970
  C      0.34477000     -5.10658000     -0.97136600
  O      0.33368000     -6.41261000     -1.18727000
  C     -0.13126300      1.87778000     -4.83053000
  O     -0.16188000      2.25465000     -6.12818000
  C      0.93089500      5.23322000     -0.80338200
  O      1.13383000      6.53354000     -0.95261300
  C      2.54608000     -4.42038000      1.65434000
  O      3.17505000     -5.45880000      2.10320000
  C     -2.31383000      4.77018000      0.07079130
  O     -2.90991000      5.92555000     -0.02272600
  C      4.27427000      2.54193000     -1.46637000
  O      5.35129000      3.05508000     -2.04806000
  C      2.91814000     -2.15578000     -3.68345000
  O      3.79448000     -2.63844000     -4.53090000
  C     -4.18573000      2.29785000     -1.18573000
  O     -5.22606000      3.10753000     -1.36224000
  C     -2.97580000      1.63813000     -3.98640000
  O     -3.73803000      2.04860000     -5.05213000
  C     -5.37609000      0.29436200      1.09065000
  O     -6.67356000      0.37639300      1.38207000
  C     -3.67998000      0.55078600      3.96266000
  O     -4.59448000      0.65152500      4.92798000
  C      3.06611000      4.09368000      0.84539700
  O      3.86477000      5.13206000      1.09411000
  C     -3.93053000      3.10873000      1.90606000
  O     -4.76974000      3.88054000      2.58054000
  C     -3.50897000     -2.59380000      2.90893000
  O     -4.56469000     -3.19908000      3.39696000
  C     -0.02780010     -4.43895000      3.69905000
  O     -0.31331200     -5.56583000      4.31580000
  C      2.18806000      3.17995000      3.62119000
  O      2.79733000      3.94032000      4.49128000
  C      0.55399200     -4.36717000     -3.69021000
  O      0.59917800     -5.34849000     -4.61393000
  C     -1.57581000      4.37062000     -2.89127000
  O     -1.92870000      5.35746000     -3.67993000
  C      3.73596000     -3.85787000     -1.16250000
  O      4.61699000     -4.88818000     -1.22340000

