110
Energy = -12449.94527656 au
 Ni     -3.93313000     -0.67262300     -1.97116000
 Ni     -0.89622200      1.29370000     -1.33256000
 Ni     -3.89902000     -1.59342000      0.42113900
 Ni      3.63311000      1.47644000     -1.50307000
 Ni      1.37824000      1.95056000     -2.71505000
 Ni     -0.12609100      2.92670000      0.62531800
 Ni     -0.81007500      0.41042300      1.08633000
 Ni      3.72565000      0.53560700      0.99561900
 Ni     -1.86552000     -0.22201100     -3.44084000
 Ni      0.04142130     -3.27720000     -1.75928000
 Ni     -1.58207000     -1.15691000     -0.82975600
 Ni     -2.25896000     -2.80420000     -2.70759000
 Ni      2.20203000     -2.55034000     -3.01792000
 Ni      0.78558600     -2.54917000      2.91578000
 Ni      0.70985700     -1.53231000      0.31844400
 Ni      0.03489870     -2.13942000     -4.16707000
 Ni      2.75615000     -0.21911000     -3.52191000
 Ni     -3.12927000      1.71390000     -2.55959000
 Ni      0.07744500     -4.13977000      0.85414700
 Ni     -3.23114000      0.78002700     -0.05057670
 Ni      2.22279000     -3.51968000     -0.42305200
 Ni      0.62540200     -0.63868100     -2.11041000
 Ni     -0.97379700      2.24246000     -3.81833000
 Ni     -2.44773000      3.32971000     -0.64071500
 Ni      3.09884000     -2.04603000      1.41443000
 Ni      1.46429000      0.05806640      2.29003000
 Ni     -2.29418000     -3.66122000     -0.30253700
 Ni     -3.09437000     -0.12845200      2.40389000
 Ni      2.09354000      3.51241000     -0.68698600
 Ni      3.08159000     -1.21342000     -1.08173000
 Ni      2.15729000      2.63094000      1.83436000
 Ni     -0.06035300      2.07216000      3.14772000
 Ni      0.49554700      0.34932100     -4.54751000
 Ni      1.40689000      0.92056200     -0.19801600
 Ni     -2.35683000      2.40429000      1.95831000
 Ni     -0.71121900     -0.57669200      3.62945000
 Ni     -0.22591300      3.75568000     -1.91795000
 Ni     -1.53549000     -2.12428000      1.70388000
  C     -2.87991000     -4.59351000      1.30596000
  O     -3.62747000     -5.65136000      1.22563000
  C      0.93787300     -3.69051000     -3.69164000
  O      1.06780000     -4.69865000     -4.49071000
  C     -4.41202000      1.42326000      2.27192000
  O     -5.55249000      1.70594000      2.94481000
  C     -3.97032000     -2.74781000     -1.62636000
  O     -5.01292000     -3.39996000     -2.03340000
  C     -4.43027000      2.93048000     -0.92985600
  O     -5.44101000      3.64257000     -1.47576000
  C     -4.89761000     -0.16550600     -0.44317200
  O     -6.15154000      0.16420400     -0.36293200
  C      0.50078100     -5.35931000      2.25262000
  O      0.38060600     -6.62960000      2.46406000
  C      4.80956000     -1.10123000      1.83667000
  O      6.00923000     -1.37062000      2.34224000
  C      0.21541400      0.44656600      5.04546000
  O      0.24007900      0.46512900      6.24558000
  C     -1.45581000     -4.40735000     -1.77472000
  O     -1.50502000     -5.60919000     -2.26519000
  C      1.69243000      2.79779000      3.97587000
  O      2.10759000      3.55268000      4.96848000
  C     -3.34580000      4.02318000      1.33308000
  O     -4.16740000      4.93979000      1.78299000
  C      2.12111000      4.65411000      1.23284000
  O      2.81096000      5.78735000      1.41776000
  C      1.39168000     -1.20747000     -5.06133000
  O      1.65415000     -1.41109000     -6.31930000
  C     -1.86684000     -2.23778000     -4.86284000
  O     -2.58961000     -2.98855000     -5.77466000
  C     -0.34578900      4.33649000      2.30573000
  O     -0.39787600      5.55641000      2.79094000
  C      4.08587000      3.39240000     -1.10487000
  O      5.12342000      4.21398000     -1.43641000
  C      0.74721100      2.50723000     -4.39697000
  O      1.26345000      3.19625000     -5.36085000
  C      1.61528000      4.42083000     -2.25992000
  O      2.00791000      5.54960000     -2.82213000
  C     -1.83710000      2.48945000      4.03494000
  O     -2.25802000      3.16842000      5.15097000
  C     -2.31545000      3.69061000     -3.08790000
  O     -2.76550000      4.53246000     -3.95061000
  C      1.04869000     -2.35976000      4.78408000
  O      1.30675000     -3.14186000      5.76140000
  C     -2.72083000     -0.54339100      4.37713000
  O     -3.38590000     -0.69944000      5.51825000
  C     -3.92342000      0.41336700     -3.66060000
  O     -4.92758000      0.40087600     -4.46558000
  C      1.37056000     -5.27149000     -1.09756000
  O      2.05246000     -6.39533000     -1.33483000
  C      4.24068000      2.22485000      1.90282000
  O      5.34192000      2.78020000      2.46024000
  C     -1.35581000      0.80358500     -4.95243000
  O     -1.96434000      0.87474400     -6.09941000
  C      3.81579000     -1.76114000     -3.30771000
  O      4.82303000     -2.16791000     -3.99894000
  C      3.64417000      1.91732000     -3.59131000
  O      4.45773000      2.15817000     -4.66404000
  C      5.10238000      0.02023190     -0.92216300
  O      6.41667000     -0.01370340     -1.25802000
  C     -1.58894000     -3.07352000      3.43448000
  O     -2.23506000     -3.95379000      4.21704000
  C      2.75671000     -3.84907000      2.28349000
  O      3.57501000     -4.65586000      2.95673000
  C     -4.37274000     -2.07270000      2.42070000
  O     -5.58768000     -2.51058000      2.70212000
  C      3.95526000     -2.87668000     -0.45064700
  O      5.07481000     -3.48270000     -0.66495200
  C     -1.32557000      5.15998000     -0.56221800
  O     -1.58304000      6.44095000     -0.78759800
  C      3.06751000     -0.21619100      3.93513000
  O      3.66488000     -0.15142500      5.05622000
