#B3LYP/6-31+G(d) OPT FREQ

110, Energy = -12603.22284327 au

0 1
 Ni     -2.89764000      0.72801300     -2.95189000
 Ni      0.48447100      1.24643000     -1.36218000
 Ni     -4.00802000      0.86366100     -0.43407100
 Ni      4.20857000     -0.89147800      0.33677400
 Ni      2.92896000      0.20296000     -1.97585000
 Ni      1.64184000      2.98292000      0.63701200
 Ni     -0.55847900      1.27671000      1.02721000
 Ni      3.13013000     -0.79456200      2.64974000
 Ni     -0.63457300     -0.31780200     -3.60891000
 Ni     -1.26419000     -2.99806000     -0.70161400
 Ni     -1.58315000     -0.26468100     -0.83744000
 Ni     -2.61620000     -1.78964000     -2.74676000
 Ni      1.13148000     -3.93868000     -1.10444000
 Ni     -1.33114000     -1.30975000      3.61828000
 Ni     -0.28732300     -1.30366000      1.16510000
 Ni     -0.18384300     -2.90021000     -3.09710000
 Ni      3.21184000     -2.31139000     -1.55007000
 Ni     -0.75902600      2.31319000     -3.43042000
 Ni     -2.36343000     -2.78605000      1.80954000
 Ni     -1.87079000      2.34781000     -0.96036600
 Ni     -0.01956420     -4.01951000      1.32999000
 Ni      0.76306200     -1.30119000     -1.23955000
 Ni      1.53966000      1.30639000     -3.85077000
 Ni      0.26626300      3.90432000     -1.48832000
 Ni      1.08267000     -2.41391000      3.16906000
 Ni      0.74295500      0.21173000      3.06816000
 Ni     -3.68880000     -1.71960000     -0.21302500
 Ni     -2.94705000      2.37469000      1.41884000
 Ni      3.87384000      1.59141000      0.14520900
 Ni      2.10581000     -2.33372000      0.79256700
 Ni      2.83355000      1.64002000      2.61537000
 Ni      0.57239300      2.94988000      2.84797000
 Ni      1.90586000     -1.36768000     -3.66853000
 Ni      1.78210000      0.21056800      0.63282000
 Ni     -0.88054100      3.98491000      0.92280400
 Ni     -1.60207000      1.30324000      3.44263000
 Ni      2.50782000      2.82461000     -1.91936000
 Ni     -2.68357000     -0.22809700      1.58941000
  C      3.67701000      2.49549000     -3.38543000
  O      4.60191000      3.23865000     -3.99428000
  C      1.96782000      4.31158000     -0.72415400
  O      2.50019000      5.48098000     -0.55143000
  C     -0.08701990      1.17516000     -4.79212000
  O     -0.25549500      1.27737000     -6.06628000
  C     -3.57120000      1.25356000      3.51347000
  O     -4.52922000      1.40036000      4.44290000
  C     -3.06247000     -4.00998000      0.10934400
  O     -3.77930000     -5.15890000     -0.09203070
  C      0.76117500      3.53846000     -3.35577000
  O      0.92065100      4.46942000     -4.24453000
  C     -4.70404000     -1.77555000      1.56324000
  O     -5.85402000     -2.15148000      2.10836000
  C     -4.61679000     -1.78886000     -1.94298000
  O     -5.80378000     -2.34193000     -2.32910000
  C     -3.79811000      3.34109000     -0.62560600
  O     -4.52585000      4.40786000     -0.95178300
  C      3.91127000     -2.16879000     -3.45232000
  O      4.79308000     -2.90665000     -4.15710000
  C      3.10448000     -4.33903000     -0.62895900
  O      3.88727000     -5.44171000     -0.57208300
  C     -1.36912000     -4.54250000      2.71526000
  O     -1.74065000     -5.66492000      3.34671000
  C     -2.61861000      2.94444000     -3.55705000
  O     -3.22401000      3.71228000     -4.48545000
  C     -0.58791400      3.08202000      4.42314000
  O     -0.70599900      3.88616000      5.48316000
  C     -3.11286000     -1.74755000      4.12084000
  O     -3.72753000     -2.25126000      5.16486000
  C      0.29844800     -1.82931000     -4.56440000
  O      0.23837100     -2.19647000     -5.81644000
  C     -5.19033000      1.14637000      1.02526000
  O     -6.47966000      1.37242000      1.17982000
  C      4.24087000      3.54063000     -0.18814900
  O      5.46616000      4.01311000      0.01057400
  C      3.34758000     -2.49849000      3.56450000
  O      4.17709000     -3.00516000      4.48330000
  C      2.36212000      3.50235000      2.58221000
  O      3.15559000      4.47590000      3.19420000
  C      1.73903000     -4.32343000      2.29910000
  O      2.35139000     -5.42417000      2.82884000
  C     -2.71472000      4.23020000      2.23041000
  O     -3.44486000      5.15290000      2.84249000
  C     -4.73522000      1.02857000     -2.30679000
  O     -5.91468000      1.33231000     -2.92044000
  C     -0.03696660     -2.70678000      4.73264000
  O      0.09939320     -3.23634000      5.95597000
  C      4.42216000      0.67953100      2.18690000
  O      5.51577000      0.86624000      2.85985000
  C     -1.27353000      5.00861000     -1.22418000
  O     -1.58951000      6.25867000     -1.60887000
  C      2.76980000      0.06998840     -4.45073000
  O      3.55078000      0.07461430     -5.48185000
  C     -0.24980800     -4.91704000     -0.31411300
  O     -0.51394300     -6.18839000     -0.49228600
  C      4.65673000      0.20606300     -1.15368000
  O      5.78624000      0.24162400     -1.79116000
  C      0.40293800      5.18195000      1.79464000
  O      0.34158000      6.44850000      2.19891000
  C     -2.64314000     -0.72527500     -4.26647000
  O     -3.20611000     -0.95959000     -5.42659000
  C      4.90372000     -2.62895000      0.57947600
  O      6.12478000     -3.05364000      0.82098200
  C      1.43523000     -4.25880000     -3.05553000
  O      1.60179000     -5.40566000     -3.78578000
  C     -0.78923400      0.49939400      5.11680000
  O     -0.86097400      0.71508200      6.44077000
  C      2.51141000      0.91585500      4.52608000
  O      2.86493000      1.07339000      5.80435000
  C     -1.87245000     -3.94841000     -3.06280000
  O     -2.50672000     -4.86839000     -3.83611000

