110
Energy = -12521.60031369 au
 Ni      3.60058000     -0.65624200     -2.05784000
 Ni     -0.06060940     -0.91603400     -1.28138000
 Ni      4.27934000     -0.61736600      0.36867500
 Ni     -3.90258000      1.57994000     -0.50739400
 Ni     -2.29077000      0.30138100     -2.21946000
 Ni     -1.50346000     -2.36013000      0.41834800
 Ni      0.52215000     -0.85795900      1.22030000
 Ni     -3.20009000      1.51758000      2.09930000
 Ni      1.34722000      0.48699600     -3.16106000
 Ni      1.81741000      3.18380000     -0.53026200
 Ni      1.93791000      0.49871800     -0.46100000
 Ni      3.30462000      1.92924000     -2.19088000
 Ni     -0.44320900      4.24707000     -1.49092000
 Ni      1.03924000      1.85720000      3.75338000
 Ni      0.35081400      1.71105000      1.19496000
 Ni      1.11954000      3.08090000     -3.08624000
 Ni     -2.41877000      2.85735000     -2.23619000
 Ni      1.53264000     -2.13267000     -2.97366000
 Ni      2.31392000      3.16114000      2.10652000
 Ni      2.20913000     -2.08486000     -0.44490900
 Ni      0.11762100      4.23079000      1.28087000
 Ni     -0.23302500      1.65962000     -1.31777000
 Ni     -0.65647800     -0.95960300     -3.90852000
 Ni      0.11441700     -3.63807000     -1.30311000
 Ni     -1.28189000      2.98347000      2.87553000
 Ni     -1.09043000      0.38574000      2.99220000
 Ni      4.02344000      1.86048000      0.31280400
 Ni      2.71510000     -2.03251000      2.08188000
 Ni     -3.70732000     -1.14823000     -0.46496100
 Ni     -1.95803000      2.97667000      0.30664400
 Ni     -3.06493000     -1.14278000      2.12238000
 Ni     -0.88627000     -2.32394000      2.92857000
 Ni     -0.92513900      1.66749000     -3.89284000
 Ni     -1.64469000      0.29517500      0.36570700
 Ni      0.72745100     -3.57430000      1.29066000
 Ni      1.09914000     -0.76825000      3.77631000
 Ni     -2.07416000     -2.42735000     -2.12155000
 Ni      2.70190000      0.65700300      2.12709000
  C      2.99218000     -0.37172500      4.34130000
  O      3.64139000     -0.36942200      5.50099000
  C      2.75243000     -4.14033000      0.61514100
  O      3.56796000     -5.19215000      0.63822500
  C     -4.91204000     -1.61035000      1.10429000
  O     -6.13753000     -2.05484000      1.39910000
  C      3.42558000      3.85540000      0.66640000
  O      4.45929000      4.63314000      0.70252300
  C      0.41656800      3.71976000      3.51064000
  O      0.44105400      4.60597000      4.45983000
  C     -3.32793000     -0.52293600      3.93065000
  O     -4.16646000     -0.66161800      4.94341000
  C     -2.71653000      2.14675000      3.89236000
  O     -3.34446000      2.67624000      4.87949000
  C     -2.84536000      1.84352000     -3.74868000
  O     -3.75355000      2.16634000     -4.61348000
  C      0.53942600     -5.46654000     -1.10678000
  O      0.51609500     -6.61884000     -1.56161000
  C      2.06956000      5.44758000      0.64791200
  O      1.73420000      6.65572000      1.09456000
  C     -4.96490000      0.24901600     -1.74670000
  O     -6.25411000      0.45701100     -2.06133000
  C     -4.21167000     -2.45297000     -1.88247000
  O     -5.31681000     -3.03867000     -2.37323000
  C      0.48815500     -2.37144000     -4.76240000
  O      0.64532300     -3.06024000     -5.88217000
  C      3.23598000     -0.89089900     -4.16617000
  O      4.19075000     -1.05449000     -5.08852000
  C      4.90133000      0.75052500      1.51788000
  O      6.08231000      0.99268500      2.00064000
  C     -2.78088000     -3.32007000      2.74944000
  O     -3.42545000     -4.20677000      3.49870000
  C      2.15693000      4.22341000     -2.06117000
  O      2.74183000      5.33714000     -2.36036000
  C     -0.04499900      0.41684500     -4.99867000
  O      0.06725850      0.47263600     -6.28661000
  C      4.88886000     -1.66592000     -1.10030000
  O      6.06998000     -2.11632000     -1.34828000
  C      2.92415000      2.33855000      3.65487000
  O      3.78797000      2.88557000      4.45169000
  C     -0.59344500      3.53584000     -3.77423000
  O     -0.72979600      4.29497000     -4.82126000
  C     -3.79268000      3.36875000     -0.98138000
  O     -4.71973000      4.25917000     -1.13798000
  C     -2.12868000      4.23972000      1.68773000
  O     -2.85673000      5.29472000      1.86422000
  C     -0.30443900     -5.00730000      2.06667000
  O     -0.21782900     -6.21093000      2.44657000
  C     -5.20500000      1.48193000      1.17748000
  O     -6.28344000      2.02408000      1.74189000
  C     -2.12652000      5.57044000     -1.34742000
  O     -1.99886000      6.74795000     -1.86248000
  C     -0.00972517      0.79646500      5.04212000
  O     -0.17284200      1.05706000      6.29088000
  C      2.42720000      2.01673000     -3.89643000
  O      3.00855000      2.31812000     -5.02009000
  C     -2.77019000     -1.06103000     -4.18256000
  O     -3.47655000     -1.20719000     -5.30611000
  C      5.00920000      1.30726000     -1.35711000
  O      6.10814000      1.77745000     -1.98656000
  C     -0.55037400     -1.94571000      4.89523000
  O     -0.73721700     -2.52891000      6.07197000
  C      1.72390000     -3.19368000      3.49341000
  O      2.23210000     -4.08487000      4.39423000
  C      2.67971000     -3.59872000     -2.42422000
  O      3.45810000     -4.48482000     -3.03046000
  C      4.69514000     -1.99284000      1.96094000
  O      5.74316000     -2.50480000      2.62662000
  C     -2.60136000     -4.18877000     -0.17550400
  O     -3.27176000     -5.24828000     -0.03455880
  C     -1.42705000     -3.89835000     -3.17968000
  O     -1.92920000     -4.82926000     -3.96724000
