110
Energy =  -9994.60454885 au
 Ni      1.71725000     19.73060000      5.12288000
 Ni      4.22961000     19.62160000      2.40977000
 Ni     -0.20224200     19.90370000      3.41031000
 Ni      7.01138000    -17.90180000     -0.23474000
 Ni      6.50962000    -19.26410000      1.96455000
 Ni      4.41178000     18.39760000      0.17115000
 Ni      2.35778000     19.83310000      0.67991400
 Ni      5.09189000    -17.72870000     -1.94731000
 Ni      4.04074000    -19.15340000      4.65084000
 Ni      2.39736000    -16.39570000      3.00442000
 Ni      2.15584000    -18.94940000      2.93441000
 Ni      1.98660000    -17.69020000      5.20622000
 Ni      4.69942000    -15.25120000      2.58263000
 Ni      0.67893800    -17.38310000     -0.98497100
 Ni      2.57953000    -17.61970000      0.76579700
 Ni      4.29244000    -16.57250000      4.76717000
 Ni      6.77814000    -16.70260000      2.05119000
 Ni      3.82751000     18.27540000      4.60416000
 Ni      0.49702400    -16.14490000      1.27377000
 Ni      1.93921000     18.51980000      2.84806000
 Ni      2.79762000    -15.03090000      0.83039100
 Ni      4.45137000    -17.83110000      2.49566000
 Ni      6.13020000     19.38500000      4.16054000
 Ni      4.01152000     17.03280000      2.34518000
 Ni      2.98163000    -16.27340000     -1.42859000
 Ni      2.76840000    -18.84470000     -1.47527000
 Ni      0.08326800    -17.50840000      3.46599000
 Ni      0.03100210     18.70460000      1.12438000
 Ni      6.72587000     19.51040000     -0.29041500
 Ni      4.86993000    -16.51790000      0.32750600
 Ni      4.82254000     19.69220000     -2.03065000
 Ni      2.51670000     18.57450000     -1.59160000
 Ni      6.35810000    -18.03320000      4.23957000
 Ni      4.65330000    -19.04860000      0.24115700
 Ni      2.10972000     17.25320000      0.59293800
 Ni      0.45104000    -19.96480000     -1.06400000
 Ni      6.31212000     18.14690000      1.90181000
 Ni      0.29951700    -18.73400000      1.21103000
  C     -4.58732000      0.51408000      1.92150000
  O     -5.76747000      0.64633300      2.41583000
  C    -12.05170000      2.06829000      1.64450000
  O    -12.44760000      2.21653000      0.42963800
  C      6.54405000     -4.46836000      6.37568000
  O      6.48974000     -4.13803000      5.13369000
  C     -9.97070000     -7.40603000     11.29650000
  O     -9.03392000     -7.47728000     10.41790000
  C     -5.08800000     -9.28872000      6.46396000
  O     -4.97699000     -8.40060000      5.54010000
  C      3.77084000     -5.86317000      5.15839000
  O      3.02607000     -5.91002000      6.20611000
  C      1.26417000     -0.89212800    -13.37490000
  O      1.68573000     -1.01471000    -12.16580000
  C      6.46273000     11.86250000     -7.62703000
  O      5.90414000     11.09080000     -6.76269000
  C     -5.03888000      2.41194000     15.63150000
  O     -4.86592000      2.59979000     14.37080000
  C     -1.04797000      2.64752000      4.11003000
  O     -1.31757000      3.32862000      5.16740000
  C      0.10272400     -0.01477030      5.01773000
  O      0.11293300     -0.01580280      6.30400000
  C     -0.24037500     -3.12050000     -4.50336000
  O     -0.55534000     -3.86894000     -5.50098000
  C      1.48263000     -0.83159200     -5.01489000
  O      1.89242000     -1.05207000     -6.21408000
  C     13.87890000     -0.76648400     -5.28790000
  O     13.23090000     -1.14791000     -4.24425000
  C      5.18439000      0.68067500     -0.62890500
  O      6.46351000      0.75681700     -0.74135600
  C     12.61230000      3.86109000      5.06868000
  O     11.55660000      3.85546000      5.80363000
  C     -5.38518000     -7.32458000      1.43493000
  O     -6.28986000     -6.94160000      0.60458100
  C    -10.62730000     -1.24878000     -5.24102000
  O    -11.18350000     -0.97457600     -6.36799000
  C      7.60495000      7.59217000     -8.28968000
  O      7.88512000      6.67494000     -7.43248000
  C      1.10507000     -4.20958000      2.56940000
  O      1.33842000     -5.25755000      3.27786000
  C     -6.44966000      1.50468000    -11.45660000
  O     -5.54937000      0.93388800    -10.73660000
  C      5.36430000      0.26952000      7.52016000
  O      5.86061000      1.02984000      8.43131000
  C     -7.70100000      1.12615000     -1.27325000
  O     -7.41148000      2.36491000     -1.08285000
  C      1.03727000    -11.65600000     -8.26804000
  O      0.85963400    -10.41350000     -8.54969000
  C      4.29535000     -2.32761000     -1.44896000
  O      5.40439000     -2.94073000     -1.66965000
  C     -2.69985000      8.70751000      3.17486000
  O     -2.07751000      9.83045000      3.09558000
  C     -3.60938000     -3.57299000     -0.75877200
  O     -4.52839000     -4.45578000     -0.93396000
  C      7.02003000     10.29600000      4.30714000
  O      6.04107000      9.50573000      4.03932000
  C     -1.53203000      3.01295000     -3.73341000
  O     -1.92764000      3.79091000     -4.67833000
  C     -1.20117000      7.25035000     -3.38211000
  O     -2.21175000      7.14265000     -2.59361000
  C     -2.50903000    -11.67120000     -2.51760000
  O     -1.43425000    -11.69390000     -3.22394000
  C      2.44300000      5.50222000      0.12421400
  O      3.09753000      6.59552000      0.29991000
  C      7.13881000     -7.67125000     -3.66347000
  O      6.89608000     -7.51365000     -2.41014000
  C     -3.07692000     12.35800000     -2.59579000
  O     -3.17338000     12.80560000     -3.79784000
  C      2.09761000      7.86750000      4.42813000
  O      2.27160000      8.00077000      5.69563000
  C     -9.76969000     10.61640000      1.19411000
  O     -8.90046000     10.23720000      0.32508600
