#B3LYP/6-31+G(d) OPT FREQ

110, Energy = -12524.55343262 au

0 1
 Ni     -2.29386000     -1.39379000     -2.62992000
 Ni      0.17130800      0.93052400     -0.87796900
 Ni     -3.79923000     -1.55621000     -0.18062100
 Ni      4.05898000      1.22407000      1.67410000
 Ni      2.87363000      1.01299000     -0.89351900
 Ni      0.09629130      3.19027000      0.59794100
 Ni     -1.21804000      0.86663500      1.30825000
 Ni      2.59522000      1.19416000      3.72524000
 Ni      0.40697400     -1.22496000     -2.34039000
 Ni      0.37834300     -3.54817000      0.76495600
 Ni     -1.04394000     -1.27491000     -0.14987500
 Ni     -0.85857400     -3.60114000     -1.67188000
 Ni      3.01156000     -3.18455000      0.76163200
 Ni     -1.29577000     -1.25476000      4.37889000
 Ni      0.16369200     -1.14295000      2.15382000
 Ni      1.96848000     -3.39500000     -1.48570000
 Ni      4.25946000     -0.97346900      0.04337090
 Ni     -1.05927000      0.79385000     -3.47665000
 Ni     -0.92500100     -3.34175000      2.95180000
 Ni     -2.46863000      0.76387300     -0.99987400
 Ni      1.57541000     -3.24915000      3.03022000
 Ni      1.56838000     -1.10854000     -0.02423550
 Ni      1.62468000      1.02159000     -3.26636000
 Ni     -1.20297000      3.05261000     -1.83853000
 Ni      1.38255000     -1.06953000      4.44683000
 Ni     -0.15534500      1.06867000      3.77141000
 Ni     -2.24328000     -3.46935000      0.56813100
 Ni     -3.96122000      0.61527100      1.16004000
 Ni      2.60720000      3.31579000      0.77446300
 Ni      3.09462000     -1.15171000      2.36597000
 Ni      1.19445000      3.28762000      2.85815000
 Ni     -1.38059000      3.08189000      2.82400000
 Ni      3.25976000     -1.12141000     -2.22360000
 Ni      1.39135000      1.04500000      1.43987000
 Ni     -2.61666000      2.93335000      0.37003400
 Ni     -2.71571000      0.74695200      3.54363000
 Ni      1.44866000      3.22783000     -1.72375000
 Ni     -2.76664000     -1.49645000      2.16327000
  C      1.67621000     -4.60313000     -0.06866480
  O      1.77196000     -5.89847000      0.00769237
  C     -4.53146000      2.46864000      0.50369200
  O     -5.69764000      3.19194000      0.56397500
  C      4.70736000      2.57798000      0.13308900
  O      5.90737000      3.14952000      0.29038400
  C     -2.95529000      3.77309000     -2.01411000
  O     -3.58766000      4.75799000     -2.60229000
  C     -5.45292000     -0.37553300     -0.16924000
  O     -6.75358000     -0.57135400     -0.21510600
  C     -1.93403000      4.69389000      1.23607000
  O     -2.43775000      5.91683000      1.46432000
  C      3.33062000      1.93341000     -3.35832000
  O      4.13779000      2.36308000     -4.33146000
  C     -0.07717400      4.87811000     -1.15991000
  O     -0.14530100      6.21320000     -1.31478000
  C      0.37589900     -4.55851000      2.74228000
  O      0.35470600     -5.78369000      3.18725000
  C      3.48536000      2.60696000      2.85932000
  O      4.30722000      3.30123000      3.61310000
  C     -4.15790000     -0.16996800      2.81946000
  O     -5.29768000     -0.42400300      3.40289000
  C     -2.61903000     -1.11797000     -4.43355000
  O     -3.36534000     -1.51760000     -5.45849000
  C     -0.17216500      3.84332000      4.02389000
  O     -0.24058800      4.78573000      4.87820000
  C     -1.49057000     -5.25894000      0.06905450
  O     -2.05527000     -6.46105000      0.23197400
  C      4.64545000     -0.08520790     -1.51359000
  O      5.85185000      0.18952700     -1.98929000
  C      0.68914000      0.59322500     -4.98290000
  O      0.91964000      0.77266200     -6.25606000
  C      0.28025100      3.59730000     -3.86254000
  O      0.40410300      4.53663000     -4.72063000
  C     -3.77953000     -2.75081000     -1.98072000
  O     -4.76120000     -3.46267000     -2.57449000
  C     -4.22828000      0.79996800     -2.68230000
  O     -5.35876000      1.16533000     -3.18300000
  C      3.08766000     -1.45469000     -4.25074000
  O      4.05262000     -1.80289000     -5.02551000
  C      0.01798730     -2.15372000     -4.48087000
  O      0.24991100     -2.73027000     -5.60508000
  C      3.35464000     -3.42155000      2.56472000
  O      4.26189000     -4.16468000      3.12999000
  C      1.33683000      1.68231000      5.19957000
  O      1.34263000      1.84045000      6.52420000
  C      4.08669000     -2.70591000     -0.71101800
  O      5.14471000     -3.41011000     -1.02296000
  C      3.29128000      4.09100000     -1.46452000
  O      3.86791000      5.14900000     -1.91107000
  C      1.82119000     -4.24393000     -3.34459000
  O      2.48638000     -5.25202000     -3.77690000
  C      4.95341000     -0.40001500      1.74145000
  O      6.16229000     -0.66115800      2.15682000
  C     -2.43605000     -2.65714000      3.73751000
  O     -3.33177000     -3.26559000      4.49674000
  C      1.68515000      4.56272000      1.66147000
  O      1.97138000      5.80630000      1.78621000
  C     -3.93837000     -2.94738000      1.07270000
  O     -4.93236000     -3.68499000      1.48285000
  C     -1.54757000     -4.60754000     -3.07665000
  O     -1.70876000     -5.75096000     -3.59826000
  C      3.18636000     -0.52066200      4.18061000
  O      4.19838000     -0.78631400      4.96222000
  C     -2.06952000      1.86833000     -4.59985000
  O     -2.52734000      2.24823000     -5.73594000
  C     -1.83481000      0.37824200      5.11470000
  O     -2.21393000      0.66368800      6.33792000
  C     -3.34567000      2.74682000      3.41151000
  O     -4.06516000      3.42172000      4.32434000
  C      0.23963200     -2.54795000      4.77530000
  O      0.24444700     -3.14480000      5.93696000

