#B3LYP/6-31+G(d) OPT FREQ

110, Energy = -12503.51357089 au

0 1
 Ni     -0.04879710     -3.41621000     -2.12361000
 Ni     -1.27542000     -0.03814220     -0.87777100
 Ni      0.58201900     -4.09238000      0.37607800
 Ni     -0.23268200      4.37560000     -0.00235967
 Ni     -1.12332000      2.63125000     -1.82016000
 Ni     -2.80799000      0.73047100      1.15790000
 Ni     -0.59994500     -0.66146500      1.52959000
 Ni      0.33959200      3.68642000      2.30543000
 Ni      0.22748800     -0.78908600     -3.03933000
 Ni      3.23329000     -0.49783800     -0.84637700
 Ni      0.83735100     -1.46657000     -0.45975400
 Ni      2.40895000     -2.24934000     -2.47002000
 Ni      3.30765000      2.13779000     -1.68249000
 Ni      2.54378000     -0.23499600      3.55562000
 Ni      1.71339000      0.38086300      1.15088000
 Ni      2.39841000      0.27531900     -3.38964000
 Ni      1.16222000      3.48468000     -2.11987000
 Ni     -2.21919000     -1.88919000     -2.56370000
 Ni      3.83941000     -0.96899200      1.54527000
 Ni     -1.46973000     -2.52919000     -0.07704640
 Ni      4.03972000      1.54078000      0.95516500
 Ni      1.04018000      1.01147000     -1.25827000
 Ni     -2.02161000      0.59457700     -3.39986000
 Ni     -3.66461000     -1.12305000     -0.55422600
 Ni      2.64923000      2.14167000      2.82717000
 Ni      0.31196700      1.24136000      3.48417000
 Ni      3.01143000     -2.89358000     -0.09129850
 Ni     -0.68322300     -3.24825000      2.33423000
 Ni     -2.49444000      3.33977000      0.36535300
 Ni      2.10765000      3.14488000      0.43863300
 Ni     -1.78739000      2.66311000      2.77565000
 Ni     -2.02312000      0.08601910      3.71091000
 Ni      0.39688900      1.64928000     -3.74283000
 Ni     -0.41359900      1.80484000      0.73045900
 Ni     -2.98979000     -1.72799000      1.96001000
 Ni      0.14617900     -1.27991000      4.02667000
 Ni     -3.44687000      1.39222000     -1.26876000
 Ni      1.55980000     -2.26030000      2.10674000
  C      4.12932000     -2.13062000     -1.35693000
  O      5.34798000     -2.43769000     -1.69289000
  C     -0.66906200      0.08784050      4.99291000
  O     -0.73675200      0.28162500      6.27324000
  C     -1.56366000      4.36675000      1.91973000
  O     -2.04184000      5.46907000      2.42070000
  C      4.36473000      0.31797800      2.71648000
  O      5.50846000      0.22492800      3.33389000
  C      1.37233000      4.81206000      1.25258000
  O      1.93182000      5.92018000      1.64005000
  C      2.25048000      1.35072000      4.47680000
  O      2.63694000      1.62691000      5.68951000
  C     -4.37554000      2.88884000      0.67802000
  O     -5.37758000      3.73701000      0.84865300
  C      1.00880000      5.15579000     -1.16872000
  O      1.40061000      6.65644000     -1.86928000
  C      2.08883000     -2.07480000      4.19028000
  O      2.66941000     -2.73596000      5.14629000
  C      3.96410000      3.20990000      1.67699000
  O      4.70303000      3.90338000      2.48281000
  C     -0.63177900     -3.21219000      4.41518000
  O     -0.81613400     -4.01811000      5.46092000
  C      4.01505000     -3.19205000      1.64541000
  O      5.10682000     -3.91006000      2.02802000
  C      2.33557000      2.65448000     -3.42742000
  O      2.90068000      3.35930000     -4.36323000
  C     -3.44245000      2.59599000     -2.83210000
  O     -4.38052000      3.32483000     -3.47142000
  C     -3.24910000     -1.56284000      4.07399000
  O     -4.17867000     -1.88974000      4.98758000
  C      0.11886500      3.05001000      4.04279000
  O      0.24029500      3.68962000      5.16519000
  C     -0.51428400      3.23426000     -3.69293000
  O     -0.86845000      4.06882000     -4.61742000
  C     -2.70893000     -3.71406000     -1.77845000
  O     -3.45863000     -4.79243000     -2.08612000
  C     -4.52529000      0.22635900      1.86261000
  O     -5.75186000      0.51197300      2.33589000
  C     -5.05741000      0.32124200     -1.11612000
  O     -6.36963000      0.42707900     -1.45697000
  C     -3.94735000     -1.20263000     -3.20818000
  O     -4.90887000     -1.66332000     -4.06498000
  C     -1.89082000      0.80574200     -5.26511000
  O     -2.57966000      1.00113000     -6.28731000
  C      2.26014000     -4.61693000     -1.12806000
  O      3.00948000     -5.73915000     -1.27470000
  C      0.39408800     -4.76581000     -3.30759000
  O      0.25590700     -5.88377000     -3.92557000
  C     -2.78233000     -3.91998000      1.85731000
  O     -3.43929000     -4.96323000      2.35453000
  C     -0.97918200     -2.12615000     -4.34099000
  O     -1.09222000     -2.60935000     -5.59753000
  C      1.16441000     -4.23456000      2.12155000
  O      1.67241000     -5.24338000      2.76748000
  C     -1.08027000     -5.32904000     -0.02970360
  O     -1.01784000     -6.61734000      0.06487030
  C     -4.57533000     -2.49835000      0.45503200
  O     -5.79486000     -3.05197000      0.47692200
  C      3.85446000      3.43505000     -0.39022700
  O      4.60683000      4.42546000     -0.77207300
  C      1.17740000      0.37031000     -4.79237000
  O      1.30918000      0.26000300     -6.07037000
  C      2.42362000     -2.20566000     -4.42606000
  O      3.08313000     -2.94272000     -5.24966000
  C     -1.85341000      4.47230000     -0.95010200
  O     -2.37769000      5.56423000     -1.43756000
  C      5.30550000      0.53268100     -0.58544000
  O      6.62489000      0.70047900     -0.47037700
  C     -3.09147000      1.88471000      4.08911000
  O     -3.82801000      2.41727000      5.08284000
  C      4.49579000      0.51412400     -3.10013000
  O      5.40173000      0.52860300     -4.04569000

