110
Energy = -12547.48881588 au
 Ni      1.02486000     -3.45405000     -2.57375000
 Ni     -1.45404000     -0.80032000     -1.42642000
 Ni      1.67725000     -3.83618000     -0.11234200
 Ni     -2.10251000      3.65690000     -0.55505000
 Ni     -2.13639000      1.67871000     -2.33968000
 Ni     -3.51741000     -0.74419800      0.52407200
 Ni     -0.83516500     -1.26411000      1.01741000
 Ni     -1.44111000      3.14002000      2.01446000
 Ni      0.46489800     -1.00137000     -3.53197000
 Ni      2.87015000      0.42442300     -0.94595400
 Ni      0.98469300     -1.41792000     -0.82576400
 Ni      2.77265000     -1.67601000     -2.69015000
 Ni      2.16526000      2.84901000     -1.72914000
 Ni      1.65622000      0.06691260      3.40600000
 Ni      1.00285000      0.53952500      0.88260400
 Ni      2.18302000      0.85594000     -3.49538000
 Ni     -0.31245900      3.48595000     -2.35248000
 Ni     -1.40840000     -2.81660000     -3.19653000
 Ni      3.59270000     -0.02043940      1.55487000
 Ni     -0.81352000     -3.25526000     -0.79757300
 Ni      2.94455000      2.35762000      0.80609500
 Ni      0.36199000      0.98744400     -1.57275000
 Ni     -2.05985000     -0.36468000     -3.95471000
 Ni     -3.28525000     -2.61290000     -1.29220000
 Ni      1.07903000      2.51722000      2.62935000
 Ni     -0.81469800      0.67284800      2.75566000
 Ni      3.48517000     -2.09521000     -0.29936800
 Ni     -0.16944300     -3.70785000      1.84495000
 Ni     -3.95784000      1.72980000     -0.28468300
 Ni      0.39136200      2.95387000      0.14846100
 Ni     -3.33886000      1.25179000      2.16442000
 Ni     -2.71142000     -1.22599000      2.91408000
 Ni     -0.27431000      1.42680000     -4.17019000
 Ni     -1.44963000      1.13845000      0.26552200
 Ni     -2.72067000     -3.07514000      1.18961000
 Ni     -0.15367000     -1.74164000      3.52602000
 Ni     -3.95385000     -0.29403100     -1.97217000
 Ni      1.60491000     -1.86561000      1.66495000
  C      0.39885900      5.00040000     -1.35625000
  O      0.52316600      6.28509000     -1.67482000
  C      5.30934000     -1.41651000     -0.60598500
  O      6.40402000     -2.09947000     -0.61566800
  C      4.07952000      2.55253000      2.46798000
  O      5.04724000      3.23370000      2.75926000
  C     -1.98406000     -4.91569000      1.69682000
  O     -2.59819000     -5.97916000      2.22413000
  C     -0.24190100      0.18004100      4.91476000
  O     -0.42099900      0.36924300      6.23035000
  C     -4.09734000      3.69190000     -0.10028200
  O     -5.18328000      4.50687000     -0.20476200
  C     -2.73718000     -4.56550000     -1.00408000
  O     -3.53238000     -5.52601000     -1.52576000
  C      3.06077000      4.10485000     -0.43432300
  O      3.91802000      5.13322000     -0.64603200
  C     -3.23736000      0.31535700      4.00756000
  O     -4.03543000      0.37915400      5.12985000
  C     -2.10807000      1.38621000     -4.59469000
  O     -2.67804000      1.77261000     -5.68270000
  C     -1.41034000      4.89384000      1.07350000
  O     -1.79888000      6.17831000      1.31133000
  C     -4.78306000      0.76036400      1.08516000
  O     -6.03114000      0.81356000      1.42847000
  C     -3.22405000      3.12420000      2.85913000
  O     -3.99620000      3.90912000      3.66230000
  C     -0.53350700     -4.43796000     -2.93136000
  O     -0.67661800     -5.53505000     -3.58352000
  C      1.45888000      4.33772000      1.97435000
  O      1.79007000      5.53290000      2.45352000
  C      1.20760000      0.38374900     -5.00751000
  O      1.65735000      0.35380500     -6.21334000
  C      4.21683000     -0.26404400     -3.18296000
  O      5.29439000     -0.44992100     -3.96262000
  C     -2.19413000      3.64597000     -2.43590000
  O     -2.87857000      4.47166000     -3.16884000
  C      0.14427600     -5.31265000     -0.03559560
  O      0.32414400     -6.64530000     -0.13833700
  C      3.33193000     -3.38559000      1.63275000
  O      4.14283000     -4.26101000      2.23863000
  C      2.35674000      1.67846000      4.29438000
  O      2.96736000      2.04466000      5.43044000
  C      1.02510000     -4.14774000      3.33311000
  O      1.16600000     -5.29197000      3.95419000
  C     -4.07037000     -2.26426000      2.18405000
  O     -5.12569000     -2.75343000      2.73417000
  C      2.89924000     -3.80507000     -1.55078000
  O      3.64431000     -4.83481000     -1.82448000
  C     -3.40837000     -1.84893000     -3.37084000
  O     -4.23954000     -2.30496000     -4.25466000
  C     -0.87419700     -1.73532000     -4.65517000
  O     -0.84049800     -2.11128000     -5.89813000
  C     -1.72143000     -2.68425000      4.29696000
  O     -1.99781000     -3.22473000      5.49409000
  C      4.63841000     -0.68165900      3.06920000
  O      5.87170000     -0.73378600      3.49908000
  C     -4.76042000     -1.60367000     -0.72858800
  O     -5.98732000     -2.01016000     -0.74485300
  C     -0.37686900      3.07764000      3.95196000
  O     -0.46024100      3.90083000      5.02770000
  C      0.40082400      3.31009000     -4.22755000
  O      0.48000000      4.17540000     -5.28734000
  C      4.76407000      1.30903000     -0.42485100
  O      6.04909000      1.56837000     -0.73299500
  C     -4.72080000      1.53963000     -2.43282000
  O     -5.88095000      1.69235000     -3.11942000
  C      3.29463000      2.54703000     -3.47279000
  O      4.18314000      3.21227000     -4.23145000
  C      1.88375000     -2.63818000     -4.01297000
  O      2.40517000     -3.24169000     -5.02624000
  C      2.09952000     -1.75178000      4.30813000
  O      2.65921000     -2.18766000      5.44732000
