110
Energy = -12592.16103412 au
 Ni      1.08694000     -3.65163000     -2.10181000
 Ni     -0.93677800     -0.54969900     -1.13378000
 Ni      1.38539000     -4.14678000      0.34316600
 Ni     -0.80246600      3.96907000     -0.21586700
 Ni     -1.02826000      1.97004000     -1.97622000
 Ni     -2.87444000     -0.03948300      0.54125600
 Ni     -0.64343500     -1.10281000      1.37441000
 Ni     -0.47961000      3.42832000      2.27715000
 Ni      1.02991000     -1.16982000     -3.10900000
 Ni      3.65656000     -0.16685100     -0.17943600
 Ni      1.26661000     -1.61425000     -0.30491100
 Ni      3.15222000     -2.25524000     -1.94646000
 Ni      3.45137000      2.31647000     -1.01488000
 Ni      1.83680000     -0.26153800      3.99714000
 Ni      1.51119000      0.31479000      1.40307000
 Ni      3.12754000      0.37038900     -2.78311000
 Ni      1.17068000      3.36340000     -1.95412000
 Ni     -1.16879000     -2.53729000     -2.99082000
 Ni      3.75915000     -0.74394700      2.25365000
 Ni     -0.83013100     -3.15395000     -0.39654700
 Ni      3.66518000      1.83156000      1.43599000
 Ni      1.21115000      0.85870900     -1.09468000
 Ni     -1.28761000     -0.02501380     -3.71131000
 Ni     -3.16354000     -1.99280000     -1.18878000
 Ni      1.76602000      2.22332000      3.13127000
 Ni     -0.43296400      0.80636300      3.13772000
 Ni      3.44608000     -2.73944000      0.53774100
 Ni     -0.63928900     -3.66930000      2.24747000
 Ni     -2.98096000      2.54240000     -0.24700900
 Ni      1.49658000      2.90771000      0.66262100
 Ni     -2.64586000      1.92564000      2.33775000
 Ni     -2.56706000     -0.58048700      3.12239000
 Ni      1.02021000      1.39423000     -3.72503000
 Ni     -0.69185400      1.40083000      0.57149400
 Ni     -2.85830000     -2.51835000      1.39642000
 Ni     -0.43379100     -1.64568000      3.88683000
 Ni     -3.24038000      0.51736200     -2.00172000
 Ni      1.64103000     -2.32389000      2.32418000
  C     -2.93409000      4.61873000      0.07644010
  O     -3.50705000      5.79631000     -0.07184010
  C     -0.54135800     -1.56242000     -4.55562000
  O     -0.55304800     -1.84925000     -5.83423000
  C      1.94178000      3.15164000     -3.61381000
  O      2.45316000      4.05803000     -4.54654000
  C      4.91573000     -0.98807900     -2.06424000
  O      6.05625000     -1.50934000     -2.60080000
  C      0.26245300     -5.11925000     -1.37827000
  O      0.53110600     -6.35370000     -1.18368000
  C      3.64077000      0.99225600      3.36255000
  O      4.56996000      1.31238000      4.20825000
  C     -1.09486000      3.79449000     -2.90581000
  O     -1.60318000      4.65126000     -3.80533000
  C      2.18083000     -3.03789000     -3.40326000
  O      2.68974000     -3.74126000     -4.39391000
  C     -0.51260400     -4.44714000     -2.84378000
  O     -0.92138700     -5.14494000     -3.85403000
  C      1.93942000     -4.16411000      2.12085000
  O      2.47556000     -5.11671000      2.80707000
  C      2.98413000     -1.82134000      3.58543000
  O      3.70052000     -2.53529000      4.40294000
  C      2.24115000     -0.04903550     -4.41918000
  O      2.81990000     -0.27011200     -5.57470000
  C     -4.80533000     -2.27931000      0.50204100
  O     -5.87145000     -3.00269000      0.76742200
  C     -0.57067300      1.47557000     -5.09233000
  O     -0.71732500      1.88485000     -6.34843000
  C      0.70203600      0.10224200      5.69857000
  O      1.28249000      0.16412100      6.86280000
  C      0.16731200      2.81452000      4.42475000
  O      0.21775900      3.47398000      5.61081000
  C      0.36773100     -3.49724000      4.45967000
  O      0.36239000     -3.95703000      5.70005000
  C      4.85910000     -1.59598000      0.95884000
  O      6.11299000     -1.87600000      1.17411000
  C     -4.47359000      0.25017900      2.57692000
  O     -5.63965000      0.23753900      3.19834000
  C      3.19510000     -3.98103000     -0.89705200
  O      4.06376000     -4.93706000     -1.04200000
  C     -2.44857000      3.45716000      3.68033000
  O     -3.26960000      4.20481000      4.40279000
  C     -1.86325000      0.20888300      4.69601000
  O     -2.27259000      0.44265800      5.88992000
  C     -2.62348000     -4.18191000     -0.54520200
  O     -3.17003000     -5.41049000     -0.72825000
  C     -4.59857000      2.25363000      0.96842600
  O     -5.75413000      2.89708000      1.06550000
  C     -3.71074000      2.56149000     -2.24290000
  O     -4.71090000      3.20915000     -2.89693000
  C      0.79293800      5.24277000     -0.88303000
  O      0.89230000      6.52693000     -1.14552000
  C     -2.66021000     -2.50371000      3.29949000
  O     -3.47451000     -3.07479000      4.13965000
  C     -3.49986000     -2.41090000     -3.21205000
  O     -4.47604000     -3.04430000     -3.77852000
  C     -3.36399000      0.26131400     -4.07893000
  O     -4.11341000      0.38467900     -5.16280000
  C      4.61876000      1.77782000     -2.56404000
  O      5.65750000      2.17825000     -3.27759000
  C      0.05100540      5.32276000      1.67005000
  O     -0.15610200      6.40197000      2.39418000
  C     -4.88702000     -0.16501300     -1.09788000
  O     -6.20290000     -0.16576800     -1.31979000
  C      3.26926000      4.32083000     -0.38741200
  O      4.24833000      5.18864000     -0.58921400
  C     -1.51951000     -5.52534000      1.73674000
  O     -1.72318000     -6.49728000      2.54913000
  C      2.72328000      3.55723000      2.14112000
  O      3.26444000      4.64375000      2.65052000
  C      4.99132000      1.30089000      0.16792700
  O      6.25114000      1.50130000      0.38208400
