110
Energy = -12740.26270675 au
 Ni     -3.68155000     -1.89684000     -1.14867000
 Ni     -1.48156000      1.16672000     -0.69506700
 Ni     -2.83860000     -3.07114000      1.01430000
 Ni      2.74907000      2.83353000     -1.87873000
 Ni      0.11645200      2.85981000     -2.64345000
 Ni     -0.83164800      2.68650000      1.37635000
 Ni     -0.47159500      0.03483110      1.46539000
 Ni      3.68078000      1.86792000      0.35266600
 Ni     -2.55002000     -0.15345700     -3.10613000
 Ni      0.54246900     -2.64176000     -2.16177000
 Ni     -1.20128000     -1.43114000     -0.60489200
 Ni     -2.05870000     -2.79475000     -2.77983000
 Ni      2.32253000     -1.11687000     -3.68295000
 Ni      2.43026000     -2.26656000      2.08776000
 Ni      1.34733000     -1.10330000     -0.01437620
 Ni     -0.38823700     -1.38291000     -4.34943000
 Ni      1.79307000      1.31775000     -3.85835000
 Ni     -4.07486000      0.93612700     -1.22137000
 Ni      1.60238000     -3.74537000      0.04134460
 Ni     -3.03674000     -0.30154300      0.84799900
 Ni      3.10748000     -2.37025000     -1.62015000
 Ni      0.33183800      0.00764567     -2.16178000
 Ni     -2.64180000      2.26490000     -2.64425000
 Ni     -3.44514000      2.32148000      0.76914400
 Ni      4.01444000     -0.91551200      0.68718500
 Ni      2.07307000      0.39198800      2.11391000
 Ni     -1.08059000     -4.03870000     -0.58061800
 Ni     -2.08018000     -1.50639000      2.95849000
 Ni      0.83558600      4.19212000     -0.28919200
 Ni      3.45926000      0.24671400     -1.74218000
 Ni      1.74739000      3.04137000      2.03763000
 Ni      0.28936900      1.47007000      3.66471000
 Ni     -0.61854100      1.19727000     -4.34348000
 Ni      1.07842000      1.51697000     -0.15064500
 Ni     -2.41489000      1.21571000      2.91309000
 Ni      0.45966400     -1.24601000      3.65133000
 Ni     -1.82116000      3.75008000     -0.97146800
 Ni     -0.30051300     -2.82660000      1.59260000
  C     -3.69580000      3.31494000     -0.84744700
  O     -4.61829000      4.23048000     -0.94864500
  C      0.42309800     -5.06413000     -1.55588000
  O      0.44395100     -6.31415000     -2.10491000
  C     -1.43217000      3.68308000     -3.34395000
  O     -1.72811000      4.59374000     -4.21751000
  C     -1.78980000     -0.15426100     -4.88541000
  O     -2.42883000     -0.11784600     -6.02591000
  C     -3.74693000     -1.59534000     -2.97502000
  O     -4.74730000     -1.72386000     -3.79916000
  C     -3.81201000     -3.10633000      2.71302000
  O     -4.65014000     -3.84358000      3.41463000
  C      0.64882500      2.48077000     -4.73291000
  O      0.82079500      3.12264000     -5.84173000
  C      4.87026000     -2.58640000      1.32275000
  O      6.05161000     -2.98813000      1.63658000
  C      1.28809000     -0.21252400      5.05681000
  O      1.52209000     -0.39663500      6.35142000
  C      1.50566000     -4.61734000      1.74832000
  O      1.71798000     -5.86515000      2.18011000
  C     -5.42543000      0.92743500      0.39790300
  O     -6.73691000      0.98692600      0.28285000
  C      4.51483000      3.45336000     -1.42446000
  O      5.41932000      4.31181000     -1.79450000
  C     -1.60724000     -4.47516000      1.08913000
  O     -1.85157000     -5.66057000      1.55403000
  C     -1.40218000      2.09621000      4.43161000
  O     -1.72139000      2.63303000      5.61281000
  C     -4.94140000     -2.21735000      0.47693800
  O     -6.16748000     -2.75595000      0.45288200
  C     -0.52873900     -3.30485000      3.86018000
  O     -0.51310400     -4.30059000      4.73713000
  C      4.76560000      0.50081500     -0.30645600
  O      6.05275000      0.64614200     -0.47431900
  C      1.96457000     -2.94258000     -3.32979000
  O      2.14296000     -3.95973000     -4.11844000
  C     -4.04213000      1.17203000     -3.07844000
  O     -5.00419000      1.51361000     -3.88281000
  C     -2.91227000     -3.85759000     -1.40040000
  O     -3.66134000     -4.87642000     -1.74500000
  C      4.10716000     -1.29114000     -2.67925000
  O      5.28098000     -1.58585000     -3.11851000
  C     -1.07019000     -3.19311000     -4.41923000
  O     -1.39621000     -3.98059000     -5.51079000
  C      1.34381000      4.17846000     -2.14227000
  O      1.47465000      5.26033000     -2.85729000
  C      3.44412000     -4.14670000     -0.63953200
  O      4.18164000     -5.26008000     -0.84889300
  C     -0.88280200      5.36386000     -0.45131400
  O     -1.16709000      6.70136000     -0.51609400
  C      3.86321000      0.03003580      2.94007000
  O      4.61314000      0.29439500      3.99804000
  C      2.70429000     -2.38772000      3.96702000
  O      3.38573000     -3.17270000      4.76733000
  C     -1.77727000     -0.78967400      4.75480000
  O     -2.30573000     -1.03848000      5.94887000
  C      1.68431000      2.86167000      4.21378000
  O      2.07864000      3.53038000      5.30031000
  C      3.57082000      1.25614000     -3.36175000
  O      4.58238000      1.33436000     -4.16907000
  C      4.00229000      2.96194000      1.92024000
  O      5.05446000      3.64709000      2.38719000
  C     -0.42117400      4.22882000      2.51674000
  O     -0.88322700      5.30552000      3.09707000
  C      1.14399000     -0.50153200     -5.08769000
  O      1.44263000     -0.71072300     -6.33621000
  C     -4.21740000      0.22347200      2.83828000
  O     -5.42446000      0.18027100      3.39991000
  C      2.20765000      4.90500000      0.92574600
  O      2.63291000      6.13965000      1.24506000
  C     -3.43637000      3.32622000      2.48237000
  O     -4.31706000      4.10927000      3.10244000
