#B3LYP/6-31+G(d) OPT FREQ

110, Energy = -11835.11295795 au

0 1
 Ni      3.61127000     -0.07223450     -1.78421000
 Ni      0.04103260     -1.02635000     -1.50484000
 Ni      3.91282000     -0.28455900      0.77134000
 Ni     -4.23163000      0.50440700     -1.01112000
 Ni     -2.19355000     -0.17552000     -2.52118000
 Ni     -1.25528000     -2.83231000     -0.22980900
 Ni      0.29405800     -1.21572000      1.03319000
 Ni     -3.93028000      0.28965000      1.54569000
 Ni      1.34831000      0.77447600     -2.80117000
 Ni      0.93839400      3.05696000     -0.01597290
 Ni      1.61002000      0.58040800     -0.25064300
 Ni      2.90394000      2.42708000     -1.55770000
 Ni     -1.29291000      3.92485000     -1.05110000
 Ni     -0.11028900      1.08612000      3.85317000
 Ni     -0.36196000      1.24655000      1.27339000
 Ni      0.66791100      3.27476000     -2.58761000
 Ni     -2.86331000      2.29706000     -2.30403000
 Ni      2.02043000     -1.70505000     -3.06399000
 Ni      1.18689000      2.90069000      2.56149000
 Ni      2.26600000     -1.87857000     -0.49490500
 Ni     -1.04366000      3.73654000      1.55056000
 Ni     -0.61551200      1.43595000     -1.26666000
 Ni     -0.22017100     -0.85958000     -4.08263000
 Ni      0.72199400     -3.52308000     -1.77850000
 Ni     -2.33183000      1.93536000      2.83196000
 Ni     -1.65750000     -0.55777000      2.56137000
 Ni      3.18484000      2.20506000      0.99460200
 Ni      2.55039000     -2.07958000      2.05991000
 Ni     -3.50904000     -1.98665000     -1.24271000
 Ni     -2.59147000      2.09206000      0.25886500
 Ni     -3.22341000     -2.19905000      1.32400000
 Ni     -0.99188400     -3.05936000      2.35990000
 Ni     -0.89422200      1.64215000     -3.83410000
 Ni     -1.93109000     -0.36121400      0.01797290
 Ni      0.98238600     -3.70463000      0.80668100
 Ni      0.56023500     -1.41731000      3.60357000
 Ni     -1.52192000     -2.68735000     -2.78328000
 Ni      1.85680000      0.39619100      2.27608000
  C      2.51220000     -1.04795000      4.37986000
  O      2.91688000     -1.34095000      5.59037000
  C     -3.47841000      4.77376000     -1.13865000
  O     -3.43276000      6.03750000     -1.56798000
  C      5.26476000     -1.82024000     -1.19820000
  O      6.39333000     -1.83806000     -1.82042000
  C     -0.06391870      0.61418100     -5.45625000
  O     -0.14112500      0.81711000     -6.83265000
  C      4.42408000     -1.58862000      2.39049000
  O      5.68223000     -1.97882000      2.80359000
  C      1.87426000     -4.01713000      2.87333000
  O      2.53177000     -4.87913000      3.62134000
  C      0.56914300     -2.98101000     -4.49227000
  O      0.60769400     -3.29050000     -5.74930000
  C      5.03394000      1.33234000      0.56770500
  O      6.36412000      1.54316000      0.84147400
  C     -4.29285000      2.95275000     -1.05621000
  O     -5.51475000      3.22944000     -1.33943000
  C      4.74781000      1.52853000     -2.50247000
  O      5.66724000      2.29501000     -2.94696000
  C      2.85506000      4.73464000      3.01183000
  O      3.11248000      5.49043000      4.02290000
  C     -0.78044400     -4.53608000     -2.66284000
  O     -0.70459300     -5.73981000     -3.16084000
  C      3.02285000     -0.25683300     -4.02114000
  O      3.75053000     -0.47885300     -5.05816000
  C      1.65862000      4.86734000     -1.33728000
  O      1.92549000      5.85337000     -2.11880000
  C      0.58392900     -5.40942000     -0.28709500
  O      0.93350200     -6.60375000      0.14787300
  C     -2.48265000     -1.46187000     -4.02403000
  O     -3.10956000     -1.79980000     -5.09733000
  C     -3.28728000      3.37764000      1.66291000
  O     -4.15639000      4.26439000      2.00105000
  C     -3.14720000     -3.73096000     -2.10503000
  O     -4.01202000     -4.52575000     -2.65060000
  C      3.44507000      1.35550000      3.35459000
  O      4.34963000      1.64768000      4.21459000
  C     -3.28131000     -1.85182000      3.42335000
  O     -4.25414000     -2.42003000      4.18235000
  C      3.30343000      4.01554000      0.08362280
  O      4.24526000      4.89346000      0.29445700
  C     -3.00799000      0.60343800      4.33357000
  O     -3.78771000      1.07491000      5.25017000
  C     -1.00024000      3.83787000     -3.50549000
  O     -1.16467000      4.55518000     -4.56359000
  C      1.91313000      2.25301000     -4.04608000
  O      2.45786000      2.87205000     -5.03110000
  C     -1.05687000     -1.24231000      4.72056000
  O     -1.24627000     -1.48364000      6.03102000
  C      1.31099000      1.90864000      5.74887000
  O      1.35790000      2.11831000      7.01908000
  C     -3.05221000      1.11972000     -4.15839000
  O     -3.94164000      1.69404000     -4.88726000
  C      2.64585000     -3.51627000     -2.48810000
  O      3.26163000     -4.34939000     -3.24991000
  C     -0.50261800     -4.54124000      3.81475000
  O     -0.90039800     -5.43538000      4.59306000
  C      3.30592000     -3.43805000      0.11793400
  O      4.25837000     -4.34179000      0.10451400
  C     -4.90776000     -2.44504000      0.07521420
  O     -5.99442000     -3.09848000      0.53657300
  C     -6.33723000      0.66428500      1.26219000
  O     -7.35217000      0.83476500      2.03752000
  C     -2.17823000     -4.40930000      0.69886600
  O     -2.76708000     -5.60933000      0.87789000
  C      0.36215000      5.29833000      0.26275600
  O      0.14868900      6.51532000      0.83954200
  C     -0.87724000      3.62835000      3.58137000
  O     -1.25176000      4.57035000      4.37874000
  C     -4.86803000     -0.98774200     -2.30085000
  O     -6.13081000     -0.92139700     -2.60019000

