#B3LYP/6-31+G(d) OPT FREQ

110, Energy = -12650.43809196 au

0 1
 Ni      1.09671000     -3.34769000     -2.51582000
 Ni     -1.04407000     -0.37259800     -1.51958000
 Ni      1.55131000     -3.83103000     -0.04029590
 Ni     -1.26613000      4.17484000     -0.57426200
 Ni     -1.58617000      2.23054000     -2.43162000
 Ni     -2.99506000     -0.06810710      0.27952600
 Ni     -0.60817500     -0.91369400      0.96314100
 Ni     -0.82538800      3.49415000      1.90785000
 Ni      0.92271500     -0.76458300     -3.59674000
 Ni      3.63536000      0.36761200     -0.80934500
 Ni      1.27762000     -1.24722000     -0.79663200
 Ni      3.25668000     -1.52473000     -2.63603000
 Ni      2.96063000      2.81952000     -1.58464000
 Ni      1.88654000      0.15256500      3.43283000
 Ni      1.42576000      0.68043500      0.91979000
 Ni      2.92534000      0.92081100     -3.27157000
 Ni      0.56597100      3.75006000     -2.31932000
 Ni     -1.23348000     -2.26447000     -3.38112000
 Ni      3.84278000     -0.12579200      1.67436000
 Ni     -0.68049700     -2.96736000     -0.74719300
 Ni      3.47207000      2.27616000      0.87400200
 Ni      0.97206100      1.20424000     -1.55079000
 Ni     -1.63716000      0.13356100     -4.12759000
 Ni     -3.07024000     -1.98405000     -1.57100000
 Ni      1.56563000      2.61839000      2.81851000
 Ni     -0.43859300      0.99806400      2.69618000
 Ni      3.65727000     -2.14960000     -0.06844850
 Ni     -0.34256300     -3.42161000      1.79877000
 Ni     -3.19463000      2.54604000     -0.42591400
 Ni      1.10355000      3.18036000      0.10729600
 Ni     -2.90529000      1.99127000      1.95170000
 Ni     -2.61454000     -0.64635100      2.85174000
 Ni      0.49733000      1.77425000     -4.02481000
 Ni     -0.90713500      1.56559000      0.19777200
 Ni     -2.69369000     -2.53306000      1.10943000
 Ni     -0.16377200     -1.50400000      3.49184000
 Ni     -3.41968000      0.47493700     -2.32158000
 Ni      1.73536000     -1.79007000      1.66562000
  C     -1.31252000     -4.79942000      0.85684900
  O     -1.63735000     -6.08957000      1.07093000
  C      4.46841000     -2.02115000      1.95160000
  O      5.60913000     -2.41183000      2.59633000
  C      4.30166000      1.60357000     -2.10919000
  O      5.51140000      1.94209000     -2.46389000
  C      0.84848400      2.87722000      4.65925000
  O      1.21700000      3.73188000      5.55732000
  C     -2.74313000      3.87022000     -1.67789000
  O     -3.54551000      4.76466000     -2.17637000
  C     -0.03089830      0.33939700     -5.10186000
  O      0.09447010      0.38253600     -6.39590000
  C     -4.87681000      1.46953000     -0.91305400
  O     -6.15148000      1.96095000     -1.05982000
  C      2.22789000      2.88927000     -3.62580000
  O      2.71279000      3.58135000     -4.61035000
  C      2.59141000      4.79863000     -0.64294800
  O      3.56243000      5.60358000     -1.04594000
  C      0.85327400     -4.83587000     -1.43625000
  O      0.93396100     -6.10821000     -1.63872000
  C      3.10616000     -3.49844000     -2.87152000
  O      3.86585000     -4.28538000     -3.68588000
  C     -3.19759000     -3.00111000      2.91899000
  O     -4.11792000     -3.81790000      3.45727000
  C      3.10897000      3.95783000      2.14889000
  O      4.08895000      4.70828000      2.64845000
  C      4.94391000      1.12280000      0.82834800
  O      6.19985000      1.39245000      1.01286000
  C     -1.76074000     -4.03068000     -2.58079000
  O     -2.14535000     -5.20517000     -3.14892000
  C      0.47176300     -2.59505000     -4.14554000
  O      0.69136900     -3.11884000     -5.31536000
  C     -0.64250800      3.22321000     -3.74584000
  O     -1.11340000      3.98398000     -4.69202000
  C     -2.43560000      4.10531000      1.12202000
  O     -3.05267000      5.17986000      1.51998000
  C     -3.65326000     -3.52921000     -0.41150100
  O     -4.65409000     -4.44196000     -0.52185200
  C      3.68396000      0.97234000      3.69906000
  O      4.42873000      1.08901000      4.82553000
  C     -2.43784000     -1.43931000     -4.38612000
  O     -3.09840000     -1.83380000     -5.40089000
  C     -3.01026000      1.37238000     -3.90855000
  O     -3.88539000      1.82695000     -4.75598000
  C      3.57347000     -4.11703000      0.18077700
  O      4.46168000     -5.12129000      0.27763500
  C      0.01711100      5.26393000     -1.35925000
  O      0.07860500      6.51855000     -1.64067000
  C      1.37771000     -4.34371000      2.20981000
  O      1.74334000     -5.45591000      2.90066000
  C     -4.81565000      1.84306000      1.99875000
  O     -5.74597000      2.40613000      2.74745000
  C     -2.97698000     -0.09694060      4.74769000
  O     -3.91279000     -0.27344600      5.59193000
  C      0.57470500      4.87114000      1.67096000
  O      0.75482000      6.14808000      2.04808000
  C      2.08541000     -1.94959000      4.08571000
  O      2.68427000     -2.56832000      5.08258000
  C      4.66180000     -1.20470000     -1.34637000
  O      5.94389000     -1.35931000     -1.53099000
  C      2.98156000     -0.65570800     -4.28194000
  O      3.60901000     -0.74814200     -5.41481000
  C      0.03925510      0.04581300      4.96131000
  O     -0.02935670      0.15785900      6.30282000
  C     -4.67086000     -1.05085000     -2.29234000
  O     -5.84238000     -1.38205000     -2.81785000
  C     -4.65746000     -0.94294100      1.18397000
  O     -5.95234000     -1.03203000      1.35039000
  C     -0.86827300     -3.24638000      4.08224000
  O     -1.03831000     -3.88432000      5.23554000
  C     -1.81851000      2.69420000      3.80499000
  O     -2.21357000      3.30485000      4.92066000

