110
Energy = -12374.88554179 au
 Ni      0.74778400     -3.62193000     -2.05171000
 Ni     -1.60795000     -0.91415600     -1.04296000
 Ni      1.27291000     -4.14866000      0.34784400
 Ni     -2.05859000      3.54954000     -0.03762650
 Ni     -2.12432000      1.52683000     -1.84102000
 Ni     -3.61027000     -0.77134000      0.76541600
 Ni     -1.06372000     -1.40590000      1.40190000
 Ni     -1.53339000      3.01885000      2.35652000
 Ni      0.23243600     -1.09923000     -2.82280000
 Ni      2.72590000      0.11144300     -0.45575300
 Ni      0.77732600     -1.63458000     -0.37260600
 Ni      2.67232000     -1.81715000     -2.18045000
 Ni      2.27453000      2.65220000     -1.24733000
 Ni      1.38046000     -0.16741800      3.86529000
 Ni      0.84290600      0.30809100      1.33143000
 Ni      2.20972000      0.64861100     -2.95826000
 Ni     -0.12482900      3.33347000     -1.90227000
 Ni     -1.73878000     -2.84762000     -2.75492000
 Ni      3.30949000     -0.37575800      1.99429000
 Ni     -1.12300000     -3.49097000     -0.35218800
 Ni      2.84397000      2.07246000      1.27135000
 Ni      0.30517300      0.80963500     -1.12322000
 Ni     -2.26104000     -0.41127000     -3.50414000
 Ni     -3.57507000     -2.67865000     -1.03603000
 Ni      0.92256200      2.26951000      3.13421000
 Ni     -0.99710100      0.53849200      3.22878000
 Ni      3.18894000     -2.40702000      0.29893000
 Ni     -0.59969700     -3.87172000      2.12571000
 Ni     -3.96912000      1.75875000      0.05197920
 Ni      0.37053800      2.81651000      0.59654400
 Ni     -3.46137000      1.24892000      2.44687000
 Ni     -2.91915000     -1.17134000      3.24333000
 Ni     -0.21081800      1.32647000     -3.61225000
 Ni     -1.54193000      1.02800000      0.66338100
 Ni     -2.99515000     -3.18597000      1.42129000
 Ni     -0.51475500     -1.87531000      3.93566000
 Ni     -4.03292000     -0.23860300     -1.80522000
 Ni      1.34794000     -2.14927000      2.09377000
  C      1.22187000      4.78566000      0.26920300
  O      1.50180000      6.03411000      0.41473300
  C      4.96342000      0.74301700      1.01169000
  O      6.22216000      1.06962000      1.24177000
  C      3.07768000     -4.23665000      1.09429000
  O      3.72664000     -5.34368000      1.25416000
  C      0.61466100     -5.32915000     -1.15347000
  O      0.83255400     -6.56455000     -1.43750000
  C     -1.60918000      4.74634000     -1.81086000
  O     -1.94437000      6.00757000     -2.04162000
  C      4.29105000      3.30123000     -0.89317300
  O      5.17268000      4.05886000     -1.39691000
  C     -1.67473000     -0.55927700      4.80211000
  O     -2.20988000     -0.56553900      5.97709000
  C      0.62939800      1.33290000      4.80925000
  O      0.74309200      1.70754000      6.03741000
  C      0.46107600     -3.25933000     -4.10953000
  O      0.62080500     -4.22718000     -5.00885000
  C      1.15060000     -4.14084000      3.11542000
  O      1.19715000     -5.24345000      3.90571000
  C     -1.92863000      4.69437000      1.48781000
  O     -2.37277000      5.84046000      1.87308000
  C     -1.71891000     -4.82212000      0.88636700
  O     -2.04795000     -6.06153000      1.05946000
  C      4.39650000      0.14243800     -2.25574000
  O      5.59640000      0.20742700     -2.75783000
  C      1.64371000      4.37810000     -2.78227000
  O      1.91734000      5.45334000     -3.43642000
  C     -2.25260000     -3.11850000      3.40344000
  O     -2.84740000     -3.88305000      4.26896000
  C     -3.81499000      2.93222000     -1.68498000
  O     -4.87556000      3.69234000     -2.11695000
  C      3.52132000     -2.11602000      3.03920000
  O      4.46964000     -2.64866000      3.81655000
  C      3.34001000      3.78354000      2.08767000
  O      4.26461000      4.49628000      2.56620000
  C      3.40122000      0.98045000      3.67555000
  O      4.26049000      1.16967000      4.70235000
  C     -4.28503000      2.73778000      1.63713000
  O     -5.36118000      3.36795000      1.97406000
  C     -4.58266000     -0.33911600      2.53539000
  O     -5.61658000     -0.49298200      3.29870000
  C     -1.26303000      3.02069000     -3.92853000
  O     -1.54979000      3.72642000     -5.03335000
  C      5.00646000     -1.63428000      0.05819600
  O      6.14442000     -2.25658000      0.10014100
  C      2.44437000     -1.18210000     -4.25384000
  O      3.08436000     -1.48121000     -5.39526000
  C     -0.09266090      0.09071120     -5.20171000
  O     -0.13748200      0.28663500     -6.49197000
  C     -2.17576000      2.33336000      4.20918000
  O     -2.88073000      3.02477000      5.15898000
  C     -3.72082000      0.92817500     -3.55272000
  O     -4.44983000      1.21414000     -4.57261000
  C     -4.27725000     -1.88683000     -2.73977000
  O     -5.41008000     -2.35925000     -3.14991000
  C     -5.11983000      0.17897500     -0.16451400
  O     -6.40963000      0.20966600     -0.26566400
  C      2.42015000      2.20918000     -4.14811000
  O      3.07862000      2.61980000     -5.17629000
  C     -2.38305000     -4.30397000     -1.65765000
  O     -2.82137000     -5.34433000     -2.29089000
  C      0.68937100      4.22132000      3.43030000
  O      0.83558100      5.15985000      4.30265000
  C     -1.85414000     -1.98054000     -4.70607000
  O     -2.46528000     -2.49048000     -5.80781000
  C      1.26382000     -1.89365000      4.83488000
  O      1.52504000     -2.27992000      6.12687000
  C      3.48977000     -3.71772000     -1.98441000
  O      4.33221000     -4.37711000     -2.74365000
  C     -4.75728000     -2.81013000      0.48873500
  O     -5.70514000     -3.60677000      0.84752500
