110
Energy = -12676.73804589 au
 Ni      0.44929400     -1.81907000     -3.57870000
 Ni      0.97074700     -1.45185000      0.11064300
 Ni      0.46370300      0.75209700     -3.95396000
 Ni     -1.23925000     -1.09953000      4.28459000
 Ni     -0.06035400     -2.93711000      2.58038000
 Ni      2.56872000     -0.01733540      1.63117000
 Ni      0.99245200      1.15082000     -0.19149300
 Ni     -1.07116000      1.64724000      3.91646000
 Ni     -0.64679100     -2.92026000     -1.44320000
 Ni     -3.32791000     -0.24147300     -1.55520000
 Ni     -0.58938900     -0.28723900     -1.68912000
 Ni     -2.19498000     -1.88004000     -3.22283000
 Ni     -4.24197000     -1.32782000      0.81417000
 Ni     -1.70352000      3.79918000      0.01053730
 Ni     -1.62278000      1.18116000      0.19649700
 Ni     -3.29209000     -2.84216000     -1.05910000
 Ni     -2.72308000     -2.53888000      2.57083000
 Ni      2.08319000     -3.04627000     -1.79149000
 Ni     -3.19310000      2.36874000     -1.50938000
 Ni      2.07365000     -0.33601000     -2.04825000
 Ni     -4.23152000      1.28979000      0.53749100
 Ni     -1.62158000     -1.36459000      0.49339700
 Ni      0.91618000     -4.02137000      0.44044700
 Ni      3.69458000     -1.47899000     -0.39057800
 Ni     -2.58822000      2.78811000      2.08499000
 Ni      0.02089530      2.70329000      1.69159000
 Ni     -2.07093000      0.75961500     -3.48545000
 Ni      1.96738000      2.29673000     -2.42012000
 Ni      1.51903000     -1.17507000      3.87360000
 Ni     -3.06263000      0.14467000      2.63629000
 Ni      1.60020000      1.57643000      3.48288000
 Ni      2.70637000      2.59188000      1.25949000
 Ni     -1.68261000     -3.91497000      0.72130200
 Ni     -0.07053760      0.04835250      2.00139000
 Ni      3.71439000      1.06466000     -0.69633200
 Ni      0.99400200      3.75436000     -0.51070600
 Ni      2.56965000     -2.75183000      1.89090000
 Ni     -0.70235200      2.47878000     -2.07561000
  C     -4.97555000      1.65076000     -1.63503000
  O     -6.14302000      2.07146000     -2.20559000
  C      3.91654000     -3.51009000      0.23164900
  O      5.02021000     -4.28493000      0.30560700
  C     -3.42450000     -0.53293100     -3.70343000
  O     -4.30347000     -0.61068000     -4.65110000
  C      2.06222000      4.26878000      1.94117000
  O      2.55115000      5.37011000      2.49778000
  C     -2.27412000      2.52011000     -4.17051000
  O     -2.77016000      3.16282000     -5.20676000
  C     -4.69391000     -1.45333000     -1.02281000
  O     -5.89312000     -1.50949000     -1.52171000
  C      2.17835000      0.23828300      5.08746000
  O      2.82101000      0.28363700      6.26832000
  C      2.85620000      4.04652000     -1.21121000
  O      3.50493000      5.17992000     -1.54620000
  C      0.16620200     -3.76005000     -3.54115000
  O      0.07316160     -4.82271000     -4.35923000
  C      3.47803000      1.80553000     -3.44176000
  O      4.31862000      2.38053000     -4.25390000
  C      3.47730000     -2.17255000      3.54990000
  O      4.36477000     -2.79579000      4.35435000
  C     -0.88932700     -1.24300000     -4.95280000
  O     -0.99750700     -1.61167000     -6.28638000
  C      3.92533000      1.83127000      2.81152000
  O      4.97447000      2.16204000      3.56388000
  C      3.49398000     -3.42586000     -2.98176000
  O      4.19574000     -4.30345000     -3.58614000
  C      2.19719000     -0.96964200     -4.39000000
  O      3.05625000     -1.15686000     -5.40556000
  C     -2.97694000      1.80451000      3.65726000
  O     -3.83507000      2.15281000      4.56954000
  C     -3.94574000      3.15484000      0.78996800
  O     -4.93003000      3.95462000      1.06945000
  C     -2.52507000      4.09934000     -1.62717000
  O     -3.05791000      5.18020000     -2.08660000
  C      4.85282000     -0.49049500      1.08679000
  O      6.06214000     -0.57465900      1.64141000
  C     -1.56579000      4.45915000      2.41753000
  O     -1.64081000      5.58308000      3.15218000
  C     -3.93148000     -3.26442000      0.98438900
  O     -4.92924000     -4.07230000      1.18374000
  C      1.40128000     -4.25836000      2.25679000
  O      1.66869000     -5.38496000      2.82040000
  C     -1.65113000     -4.07482000      2.69974000
  O     -1.94830000     -5.13912000      3.37979000
  C     -3.11317000     -1.29118000      3.93972000
  O     -4.07991000     -1.50373000      4.78409000
  C      4.83432000      2.42568000      0.07137160
  O      6.03837000      2.93611000     -0.07370580
  C     -2.95736000     -3.51058000     -2.75317000
  O     -3.63199000     -4.35125000     -3.49471000
  C      4.87364000     -0.42925800     -2.04581000
  O      6.07981000     -0.58837000     -2.53550000
  C     -1.08296000      0.36216100      5.53846000
  O     -1.32928000      0.47670700      6.87380000
  C     -4.97096000      0.09905570      1.79651000
  O     -6.18422000      0.13079600      2.25390000
  C      0.14179800     -2.40191000      4.42454000
  O      0.23574900     -3.24200000      5.41369000
  C      0.74656500      3.15933000      4.31668000
  O      0.94161200      3.88945000      5.42321000
  C      1.35789000     -5.08964000     -1.09441000
  O      1.72055000     -6.37693000     -1.25663000
  C      0.76603400      1.92331000     -5.40425000
  O      0.86040400      2.09100000     -6.66475000
  C     -0.18127900      5.31715000      0.11847100
  O     -0.14863000      6.65801000      0.00720743
  C     -1.74864000     -5.05619000     -0.81532300
  O     -2.00515000     -6.37148000     -0.87251500
  C      0.46006800      4.05621000     -2.98179000
  O      0.33854200      5.03546000     -3.88092000
