#B3LYP/6-31+G(d) OPT FREQ

110, Energy = -12429.97770451 au

0 1
 Ni      0.98376500     -3.13611000     -2.39352000
 Ni     -1.29252000     -0.27430900     -1.39345000
 Ni      1.34173000     -3.79415000      0.23242400
 Ni     -1.45525000      4.19807000     -0.35652800
 Ni     -1.79343000      2.35028000     -2.32482000
 Ni     -3.55630000      0.07662560      0.26417500
 Ni     -1.00129000     -0.84744300      1.12563000
 Ni     -1.17701000      3.47837000      2.21631000
 Ni      0.67685200     -0.62256900     -3.34620000
 Ni      3.01150000      0.38109700     -0.41573800
 Ni      0.98356200     -1.21974000     -0.53894200
 Ni      2.94024000     -1.54014000     -2.30032000
 Ni      2.73381000      2.90242000     -1.21762000
 Ni      1.39216000      0.15700900      3.71665000
 Ni      1.03933000      0.71832700      1.23476000
 Ni      2.69069000      1.01201000     -3.02069000
 Ni      0.50301900      3.79494000     -2.16431000
 Ni     -1.24090000     -2.25769000     -3.21903000
 Ni      3.37797000     -0.20558900      2.06137000
 Ni     -1.16034000     -2.86481000     -0.62088800
 Ni      3.06824000      2.30797000      1.37678000
 Ni      0.73406100      1.27061000     -1.29959000
 Ni     -1.70040000      0.34014800     -3.99965000
 Ni     -3.33408000     -1.87779000     -1.52280000
 Ni      1.12228000      2.67524000      3.15423000
 Ni     -0.91833300      1.02221000      2.98265000
 Ni      3.34919000     -2.27689000      0.26404000
 Ni     -0.77844800     -3.42249000      1.89125000
 Ni     -3.48184000      2.60852000     -0.44695600
 Ni      0.82168400      3.17658000      0.48088200
 Ni     -3.23079000      1.95767000      2.12631000
 Ni     -3.07507000     -0.55791700      2.80753000
 Ni      0.44338200      1.91068000     -3.85836000
 Ni     -1.23527000      1.61654000      0.35984800
 Ni     -3.11343000     -2.47547000      1.14141000
 Ni     -0.77573400     -1.46058000      3.67470000
 Ni     -3.69838000      0.67050500     -2.27098000
 Ni      1.31096000     -1.80646000      1.98271000
  C      0.43971900     -2.39692000     -4.08575000
  O      0.72886600     -2.83552000     -5.32796000
  C     -0.09922340      5.53076000     -1.20643000
  O     -0.21923800      6.82840000     -1.57618000
  C     -3.15300000      1.42286000     -3.83326000
  O     -4.03397000      1.86675000     -4.79988000
  C      4.90142000      1.42069000      0.85148600
  O      6.19679000      1.72796000      0.93024600
  C     -4.87019000     -1.01479000     -2.32674000
  O     -5.97171000     -1.36920000     -2.83608000
  C     -3.44249000     -3.55282000     -0.48227800
  O     -4.25088000     -4.57933000     -0.64450800
  C      2.38757000      4.86641000     -0.59806400
  O      3.25030000      5.84565000     -0.83555800
  C      1.13459000     -5.08899000     -1.31082000
  O      1.50049000     -6.29917000     -1.69255000
  C     -0.81913600      3.30199000     -3.64293000
  O     -1.35456000      4.08369000     -4.53328000
  C      2.87229000      4.10886000      2.34521000
  O      3.80642000      4.92015000      2.80662000
  C      1.60399000     -4.36910000      2.16006000
  O      2.06277000     -5.40099000      2.72774000
  C      1.96463000      3.12949000     -3.45731000
  O      2.43992000      3.89866000     -4.39459000
  C      0.39762100      4.92250000      1.91486000
  O      0.51132600      6.16143000      2.23229000
  C     -2.90179000     -3.36809000      2.90860000
  O     -3.72369000     -4.30002000      3.42058000
  C     -1.90856000      2.50820000      3.69016000
  O     -2.19426000      2.82941000      4.91806000
  C      2.33522000     -1.89831000      3.93916000
  O      2.92125000     -2.68280000      4.83747000
  C     -2.63565000     -0.63842400      4.91674000
  O     -3.51538000     -0.92978100      5.84528000
  C     -0.37516800     -3.47786000      3.98966000
  O     -0.58198900     -4.27476000      5.05767000
  C      2.80940000     -0.14749500     -4.55396000
  O      3.54422000     -0.19996700     -5.67524000
  C      0.73850500      2.83115000      5.03709000
  O      1.12393000      3.68269000      5.92335000
  C      3.52095000      0.99113300      3.75697000
  O      4.40807000      1.08859000      4.78337000
  C     -2.83767000      3.99507000      1.30228000
  O     -3.49948000      5.03583000      1.72897000
  C      3.08930000     -3.16224000     -3.40742000
  O      3.95395000     -3.90121000     -4.09526000
  C      3.76235000     -4.08665000     -0.34884300
  O      4.76382000     -4.93609000     -0.15655700
  C     -0.10461000      0.64264100     -5.08642000
  O     -0.04487210      0.69593800     -6.39903000
  C      4.72654000     -1.01429000     -1.35041000
  O      6.04853000     -1.05405000     -1.64859000
  C     -3.00915000      3.90612000     -1.67511000
  O     -3.80578000      4.86848000     -2.13078000
  C     -4.47499000     -1.21020000      1.25081000
  O     -5.75496000     -1.39384000      1.39166000
  C     -1.47800000     -4.15174000     -2.68612000
  O     -1.93816000     -5.27865000     -3.27615000
  C     -0.97063600     -4.94837000      0.68553200
  O     -1.33562000     -6.24567000      0.78319100
  C     -4.75806000      1.30547000     -0.79185200
  O     -6.03996000      1.55032000     -0.74504300
  C     -2.57039000     -1.33777000     -4.29901000
  O     -3.23831000     -1.86876000     -5.65187000
  C     -0.04773090     -0.08822030      5.22128000
  O     -0.01544890     -0.16025500      6.57473000
  C     -5.00668000      1.17371000      2.45773000
  O     -6.00149000      1.71497000      3.12911000
  C      4.75623000     -1.69684000      1.71029000
  O      5.91064000     -2.13045000      2.25182000
  C      4.45296000      1.90788000     -2.21905000
  O      5.57718000      2.45141000     -2.72610000

