#B3LYP/6-31+G(d) OPT FREQ

110, Energy = -12570.71943091 au

0 1
 Ni     -0.88952700     -3.67089000     -2.06287000
 Ni     -1.42082000     -0.04212090     -0.84079400
 Ni     -0.35998500     -4.32859000      0.50986800
 Ni      0.67088800      3.99774000      0.10555900
 Ni     -0.71060500      2.42291000     -1.66977000
 Ni     -2.77142000      1.05883000      1.16194000
 Ni     -0.96686100     -0.77816600      1.63415000
 Ni      0.79903400      3.25055000      2.47637000
 Ni     -0.07416750     -1.19446000     -2.86475000
 Ni      3.04863000     -1.47104000     -0.61924600
 Ni      0.32235100     -1.89947000     -0.32577500
 Ni      1.69068000     -3.02190000     -2.22936000
 Ni      3.65341000      0.96907000     -1.40873000
 Ni      2.13908000     -0.99404000      3.87111000
 Ni      1.54429000     -0.25263200      1.33508000
 Ni      2.48992000     -0.62821100     -3.12035000
 Ni      1.85781000      2.84947000     -1.94145000
 Ni     -2.65235000     -1.69462000     -2.50122000
 Ni      3.36804000     -2.20498000      1.97131000
 Ni     -2.37187000     -2.75462000     -0.08317610
 Ni      4.08203000      0.26946400      1.03325000
 Ni      1.11391000      0.47600500     -1.13313000
 Ni     -1.89560000      0.74971900     -3.38756000
 Ni     -4.01986000     -0.59597000     -0.48909800
 Ni      2.71405000      1.52449000      2.98601000
 Ni      0.38791600      0.93793100      3.46073000
 Ni      2.14349000     -3.85519000      0.29738000
 Ni     -1.71798000     -3.17971000      2.46124000
 Ni     -2.02885000      3.62868000      0.29961500
 Ni      2.57340000      2.20944000      0.64885800
 Ni     -1.60139000      2.64241000      2.89279000
 Ni     -2.39801000      0.30228800      3.56821000
 Ni      0.72059800      1.18563000     -3.69125000
 Ni     -0.21971400      1.61258000      0.82590800
 Ni     -3.55556000     -1.39692000      1.91190000
 Ni     -0.67453600     -1.37206000      4.13161000
 Ni     -3.18500000      1.94208000     -1.33278000
 Ni      0.78641100     -2.69786000      2.46727000
  C     -5.15643000     -0.38243800      1.52537000
  O     -6.41630000     -0.57449300      1.97391000
  C     -3.38428000     -3.25841000      1.42884000
  O     -4.26185000     -4.21276000      1.53882000
  C      3.99979000     -1.26368000      3.48115000
  O      5.01562000     -1.74593000      4.30914000
  C      3.77202000     -2.56356000     -2.74927000
  O      4.73044000     -3.30813000     -3.32251000
  C     -4.93024000      0.93401600     -1.27755000
  O     -6.20993000      1.21347000     -1.65036000
  C     -2.50386000     -1.92328000      3.92631000
  O     -3.17714000     -2.41859000      4.92243000
  C     -0.17702300      4.02801000     -2.71925000
  O     -0.62123100      5.01112000     -3.47420000
  C     -3.48173000     -0.32928900     -3.81344000
  O     -4.31170000     -0.38395200     -4.89176000
  C      2.40702000      2.37685000     -3.88261000
  O      2.95833000      3.05453000     -4.92189000
  C     -0.92721400     -1.40702000     -4.63771000
  O     -0.81006700     -1.90776000     -5.84030000
  C     -2.59077000     -3.83641000     -3.00706000
  O     -3.10815000     -4.71305000     -3.88841000
  C      0.68015300     -3.99193000     -3.59447000
  O      0.96203800     -5.04601000     -4.39467000
  C     -1.75153000     -4.74881000     -0.68542300
  O     -2.29823000     -5.90956000     -0.87091400
  C      1.22448000     -5.24081000     -0.76166100
  O      1.64921000     -6.55862000     -0.77191000
  C      2.18356000      0.71885600      4.63176000
  O      2.62982000      0.99754800      5.81582000
  C      0.94118400     -2.30534000      4.77788000
  O      1.16645000     -2.85226000      5.92661000
  C      2.32314000     -3.79987000      2.24615000
  O      2.60196000     -4.78504000      3.04725000
  C      4.51615000      0.08773180     -3.01973000
  O      5.64275000      0.12494800     -3.74097000
  C     -4.09197000      2.65598000      0.96602600
  O     -5.30176000      3.03526000      1.42191000
  C      4.40315000      2.61388000     -0.69873700
  O      5.48506000      3.41048000     -0.80659200
  C     -2.93867000      2.64522000     -3.29149000
  O     -3.73290000      3.34756000     -4.13173000
  C     -0.92115200      0.56365900      4.79559000
  O     -0.90851300      0.98513900      6.02644000
  C     -3.78591000      1.50257000      3.83583000
  O     -4.67281000      1.69226000      4.79345000
  C     -4.48333000     -2.51615000     -1.35953000
  O     -5.66288000     -3.13022000     -1.61162000
  C      1.83358000     -0.64854100     -4.91893000
  O      2.38112000     -0.87647300     -6.10849000
  C      2.45263000      3.77999000      1.60790000
  O      3.28493000      4.72251000      1.90207000
  C     -0.31288400      5.18440000      1.25959000
  O     -0.26613300      6.53986000      1.33341000
  C      5.32913000     -0.57922600     -0.25372900
  O      6.63575000     -0.85740100     -0.09223820
  C      4.45085000      1.59792000      2.32355000
  O      5.51969000      2.07017000      2.86747000
  C      0.79470400      3.26399000      4.33051000
  O      1.01680000      4.10765000      5.33968000
  C      3.88483000     -3.05896000      0.26937400
  O      4.99390000     -3.72427000      0.14585400
  C      2.16566000      4.68645000     -1.15414000
  O      2.64118000      5.87572000     -1.59329000
  C     -0.80281000      1.58448000     -4.95407000
  O     -0.99077200      1.97749000     -6.22973000
  C     -2.05304000      4.47282000      3.06648000
  O     -2.60801000      5.28637000      3.89672000
  C     -0.37496800     -4.84138000      2.58512000
  O     -0.66914800     -5.87783000      3.45144000
  C     -2.82158000      4.67650000     -1.08881000
  O     -3.51771000      5.77439000     -1.05498000

