110
Energy = -12335.73758138 au
 Ni      3.88211000      1.55530000     -0.00081724
 Ni      0.99950500     -0.29682900     -1.50829000
 Ni      3.26667000      0.53843500      2.42886000
 Ni     -3.51062000     -0.12367400     -2.65672000
 Ni     -0.94321000      0.32439100     -3.35850000
 Ni      0.06923800     -2.79135000     -1.38147000
 Ni      0.36382700     -1.26939000      0.78834300
 Ni     -4.01141000     -1.15881000     -0.48118000
 Ni      1.97325000      2.11225000     -1.65269000
 Ni     -0.23494100      3.11752000      1.05341000
 Ni      1.32174000      1.12502000      0.63487400
 Ni      2.26920000      3.57809000      0.43448800
 Ni     -2.08439000      3.74195000     -0.71498400
 Ni     -1.84745000     -0.23314300      3.54648000
 Ni     -1.19056000      0.75477000      1.19871000
 Ni      0.39037000      4.12155000     -1.24510000
 Ni     -2.43773000      2.28951000     -2.86755000
 Ni      3.55416000      0.15123700     -2.11463000
 Ni     -0.89585600      2.25284000      3.37147000
 Ni      2.82760000     -0.90108200      0.23224300
 Ni     -2.87839000      2.83279000      1.59750000
 Ni     -0.54809200      1.71480000     -1.09354000
 Ni      1.58450000      0.66392700     -3.85674000
 Ni      2.63851000     -2.40668000     -1.92904000
 Ni     -3.75076000      0.38965000      1.76892000
 Ni     -2.12587000     -1.69317000      1.34096000
 Ni      1.63179000      2.54247000      2.80321000
 Ni      2.31084000     -1.90186000      2.52897000
 Ni     -1.94204000     -2.21727000     -3.15424000
 Ni     -3.28682000      1.37467000     -0.56476400
 Ni     -2.47994000     -3.09431000     -0.78692300
 Ni     -0.53005800     -3.77293000      0.95340300
 Ni      0.06398470      2.68848000     -3.42658000
 Ni     -1.50034000     -0.67124700     -0.95564000
 Ni      1.98734000     -3.37290000      0.33699200
 Ni     -0.28601700     -2.32490000      3.13879000
 Ni      0.66811800     -1.73918000     -3.67090000
 Ni      0.69740600      0.14896500      2.98655000
  C      0.03791920     -4.78329000     -1.33931000
  O      0.09248740     -5.94070000     -1.94325000
  C      3.17508000     -4.37258000     -1.30130000
  O      4.03945000     -5.36387000     -1.31116000
  C      3.33328000     -0.60276000     -4.16552000
  O      4.16126000     -0.63100300     -5.22755000
  C     -4.51739000      2.03492000     -3.18373000
  O     -5.17389000      2.64302000     -4.14928000
  C      1.55595000     -3.14598000      3.83286000
  O      2.02764000     -3.95704000      4.80319000
  C      2.00428000     -3.41765000     -3.63786000
  O      2.62037000     -4.18532000     -4.55387000
  C      5.08265000      0.26761800      1.05380000
  O      6.40696000      0.32316800      1.32360000
  C     -4.63047000     -2.33808000      0.86281400
  O     -5.75994000     -2.96155000      1.15772000
  C     -0.76991400     -1.55153000      4.89561000
  O     -0.93338800     -2.04328000      6.14527000
  C     -3.08971000      3.98594000      3.09873000
  O     -3.88966000      4.86857000      3.58737000
  C     -3.56243000     -1.34721000      3.40855000
  O     -4.44664000     -1.84477000      4.29721000
  C     -2.46358000      1.40036000      4.46760000
  O     -2.98279000      1.64148000      5.70435000
  C      0.93018700      0.95054700      4.78311000
  O      1.23057000      0.91202300      6.06266000
  C     -2.62652000     -0.97167700     -4.82403000
  O     -3.58381000     -1.02162000     -5.74044000
  C      0.12645100     -0.53242900     -5.41651000
  O      0.09622570     -0.97813800     -6.67509000
  C      1.34352000      4.85563000      1.69081000
  O      1.61927000      6.13932000      1.98217000
  C      4.62496000      2.09482000     -2.07920000
  O      5.75326000      2.47577000     -2.67334000
  C      3.43620000     -0.69550300      4.01972000
  O      4.40287000     -0.85721300      4.93603000
  C      3.99261000     -2.77293000      1.53223000
  O      5.11332000     -3.36947000      1.93924000
  C     -3.84098000      3.21130000     -0.32603600
  O     -4.93125000      3.88662000     -0.52351800
  C      2.62868000      4.60598000     -1.55413000
  O      2.82810000      5.80340000     -2.10982000
  C      2.15535000      2.79606000     -3.99397000
  O      2.77141000      3.46528000     -5.02452000
  C      4.34417000      3.48953000      0.59417300
  O      5.38255000      4.34055000      0.57900600
  C      1.09522000     -4.89228000      1.67174000
  O      1.26414000     -6.19030000      1.92380000
  C     -1.72271000     -3.87240000      2.92532000
  O     -2.21159000     -4.87788000      3.65421000
  C      3.66055000      2.42757000      3.37679000
  O      4.41233000      3.04102000      4.28855000
  C     -1.38251000      5.15907000      0.63037000
  O     -1.51948000      6.48830000      0.53567900
  C     -4.95237000      0.17548100     -1.39047000
  O     -6.22369000      0.28594200     -1.60498000
  C     -2.43634000     -4.73826000      0.30535800
  O     -3.02788000     -5.93607000      0.19985000
  C     -1.06187000      4.20370000     -2.66349000
  O     -1.31581000      5.27924000     -3.34393000
  C      0.12102600      3.88066000      3.96391000
  O      0.08301220      4.74986000      4.96591000
  C     -0.97819700     -4.10631000     -3.92669000
  O     -1.29676000     -4.75374000     -4.98534000
  C     -3.69838000     -2.60411000     -2.17632000
  O     -4.63310000     -3.36532000     -2.65453000
  C      4.71441000     -1.44972000     -1.47033000
  O      5.94562000     -1.90501000     -1.78430000
  C     -5.34150000      1.41837000      1.72082000
  O     -6.49030000      1.49545000      2.31072000
  C     -0.99425600      1.80406000     -4.68673000
  O     -1.22270000      2.07327000     -5.92981000
