110
Energy = -12461.47344147 au
 Ni      3.42345000     -1.11322000     -2.58492000
 Ni     -0.05378820     -1.71271000     -1.30221000
 Ni      4.32450000     -0.80704400      0.23602000
 Ni     -4.08289000      0.13306400     -0.36485000
 Ni     -2.50918000     -0.89737700     -2.19647000
 Ni     -1.09031000     -3.48291000      0.66282300
 Ni      0.70075300     -1.42506000      1.14598000
 Ni     -3.31409000      0.50002100      2.22670000
 Ni      1.12764000     -0.32077600     -3.41330000
 Ni      1.32178000      2.67334000     -0.90117300
 Ni      1.76497000      0.01340140     -0.70783900
 Ni      2.74562000      1.70503000     -2.62311000
 Ni     -1.28349000      3.49152000     -1.63714000
 Ni      0.90712200      1.51445000      3.46523000
 Ni      0.14672700      1.11336000      1.01376000
 Ni      0.53671000      2.31143000     -3.48045000
 Ni     -3.12647000      1.55171000     -2.30542000
 Ni      1.63807000     -2.77751000     -3.07652000
 Ni      2.06875000      2.99228000      1.67874000
 Ni      2.52896000     -2.67757000     -0.55309700
 Ni     -0.51605200      3.73920000      0.95575200
 Ni     -0.60974300      0.82385600     -1.44784000
 Ni     -0.86316200     -1.93810000     -3.85091000
 Ni      0.63478300     -4.25799000     -1.09012000
 Ni     -1.48679000      2.30973000      2.76503000
 Ni     -0.90629500     -0.44979500      3.02879000
 Ni      3.56073000      1.88139000     -0.10616700
 Ni      3.17806000     -2.20779000      1.95889000
 Ni     -3.41107000     -2.48878000     -0.16229900
 Ni     -2.30552000      1.96315000      0.27609100
 Ni     -2.71095000     -2.13293000      2.35607000
 Ni     -0.31377300     -3.04525000      3.11137000
 Ni     -1.33938000      0.47399500     -3.97249000
 Ni     -1.68055000     -0.64669400      0.42294400
 Ni      1.38137000     -3.99100000      1.31927000
 Ni      1.29151000     -1.20344000      3.77577000
 Ni     -1.86432000     -3.55066000     -1.75080000
 Ni      2.71244000      0.28391900      1.81902000
  C     -0.33627600     -1.89757000      4.48131000
  O     -0.72820100     -2.12920000      5.69246000
  C      4.67425000     -1.21389000      1.80307000
  O      5.77870000     -1.37983000      2.41793000
  C      1.65058000      3.87577000     -3.48028000
  O      1.92689000      4.73215000     -4.44899000
  C     -0.22113900     -4.04297000     -3.04105000
  O     -0.30787200     -5.09586000     -3.78554000
  C     -2.20835000     -4.04443000      3.08119000
  O     -2.95330000     -4.80168000      3.88382000
  C     -1.04180000      4.87643000      2.27462000
  O     -1.11954000      6.13773000      2.61273000
  C      2.39213000     -3.92222000     -1.93712000
  O      3.31743000     -4.79052000     -2.22547000
  C     -0.49108600     -1.38756000     -5.67486000
  O     -0.73050800     -2.06951000     -6.76694000
  C      3.39282000      3.07502000     -1.41377000
  O      4.08304000      4.13390000     -1.63375000
  C      0.66381100      4.82044000     -0.53132300
  O      1.08424000      6.08229000     -0.76704600
  C     -2.52403000     -4.28117000     -0.24760400
  O     -2.96201000     -5.47881000      0.02315850
  C      2.62426000     -1.71274000     -4.01789000
  O      3.15889000     -1.92545000     -5.17248000
  C      3.05359000      4.48387000      1.39920000
  O      3.71255000      5.39821000      2.04381000
  C     -2.98767000     -0.17259800     -3.90592000
  O     -3.89241000     -0.44645000     -4.77648000
  C      1.89865000      0.34102500      4.83308000
  O      2.33386000      0.47908300      6.11872000
  C     -1.19132000      1.10918000      4.69366000
  O     -1.56574000      1.17887000      5.98547000
  C     -4.89377000      1.23741000      1.19709000
  O     -6.17106000      1.58591000      1.53146000
  C      4.90493000     -1.94962000     -1.34327000
  O      6.16884000     -2.30951000     -1.76777000
  C      5.30980000      0.98404200     -0.03081640
  O      6.60915000      1.38007000      0.01378800
  C     -2.08059000      4.73284000     -2.66742000
  O     -2.28171000      5.91587000     -3.03779000
  C      0.32787200     -4.84586000      2.52524000
  O      0.52078400     -5.69130000      3.46837000
  C     -1.59503000      2.52518000     -4.34259000
  O     -1.90808000      3.02374000     -5.57286000
  C      0.29282800     -5.33453000      0.82167400
  O      0.38577700     -6.52183000      0.34935000
  C      0.71355400      3.38781000      3.77926000
  O      0.90681100      4.13855000      4.85894000
  C     -4.69919000      2.51335000     -2.02043000
  O     -5.56671000      3.07976000     -2.80985000
  C     -4.99593000     -0.63294100     -1.85789000
  O     -6.23385000     -0.89427900     -2.23553000
  C     -3.28854000      2.83445000      3.06952000
  O     -3.92108000      3.55007000      3.98638000
  C      2.70954000     -2.64343000      3.82791000
  O      3.42709000     -3.20868000      4.89526000
  C      3.67087000      1.67037000      2.87716000
  O      4.74476000      1.82287000      3.65749000
  C     -2.98859000      3.72338000      0.19509600
  O     -4.00015000      4.59233000      0.39260400
  C     -4.77422000     -2.07468000      1.28335000
  O     -5.91969000     -2.76613000      1.44979000
  C      4.21015000      0.56772500     -3.46745000
  O      5.25426000      0.82262500     -4.29287000
  C     -3.49424000     -3.05704000     -2.66362000
  O     -4.39711000     -3.69685000     -3.45631000
  C      3.07607000     -3.72608000      0.96294800
  O      3.98734000     -4.65298000      0.98986000
  C      1.04204000      1.03630000     -4.60145000
  O      1.41484000      0.94774100     -5.82215000
  C     -3.56162000     -0.61859800      3.85534000
  O     -4.58907000     -0.70928500      4.71857000
