110
Energy = -12389.31746092 au
 Ni      2.03889000     -1.53082000     -3.04595000
 Ni      1.31834000     -0.07215250      0.42377600
 Ni      0.46425900      0.31418000     -4.06123000
 Ni     -1.39260000     -0.35212300      4.14503000
 Ni      0.82604900     -1.04012000      2.73335000
 Ni      1.24408000      2.35609000      1.41724000
 Ni     -0.27308200      1.65283000     -0.62048900
 Ni     -2.86682000      1.59674000      3.02767000
 Ni      1.51607000     -2.52946000     -0.55785100
 Ni     -2.21594000     -2.40065000     -1.29624000
 Ni     -0.14598500     -0.72685600     -1.59765000
 Ni     -0.02058950     -3.17965000     -2.54464000
 Ni     -2.62910000     -3.33414000      1.15084000
 Ni     -3.88185000      1.74816000     -1.19809000
 Ni     -2.24810000      0.04704390     -0.28359000
 Ni     -0.55347600     -4.09179000     -0.16158100
 Ni     -1.24163000     -2.65739000      3.15680000
 Ni      3.56463000     -0.97129700     -0.91665900
 Ni     -3.75465000     -0.65854900     -2.38243000
 Ni      1.91484000      0.91358100     -2.02830000
 Ni     -4.25509000     -1.57079000     -0.06826910
 Ni     -0.66083800     -1.68427000      0.75972700
 Ni      3.00640000     -1.81504000      1.48049000
 Ni      3.39958000      1.59672000      0.06944890
 Ni     -4.37507000      0.96239800      0.90882600
 Ni     -2.55085000      2.67005000      0.73971400
 Ni     -1.72270000     -1.32029000     -3.65840000
 Ni      0.27809300      2.60995000     -3.18514000
 Ni      0.73549000      1.36977000      3.78144000
 Ni     -2.81033000     -0.94880000      2.12146000
 Ni     -0.99302500      3.19146000      2.71173000
 Ni     -0.46579400      4.17193000      0.31015000
 Ni      0.90999900     -3.45831000      1.86220000
 Ni     -0.78024400      0.70001500      1.73310000
 Ni      1.80759000      3.29395000     -1.01352000
 Ni     -1.88847000      3.43890000     -1.62466000
 Ni      2.90070000      0.59887200      2.45442000
 Ni     -1.76083000      0.96987900     -2.87306000
  C      3.31440000     -0.91238400      3.73488000
  O      4.07205000     -1.12931000      4.81658000
  C      4.86169000      1.40777000      1.36265000
  O      6.07511000      1.84779000      1.62857000
  C     -2.80478000     -1.95106000      3.86926000
  O     -3.62609000     -2.43908000      4.74616000
  C      3.91719000      2.98823000     -1.47788000
  O      4.97162000      3.66402000     -1.91717000
  C     -3.23364000     -0.44307500     -4.13988000
  O     -3.86574000     -0.39638400     -5.25463000
  C     -3.60671000      2.34628000     -3.13250000
  O     -4.67434000      2.76620000     -3.87233000
  C     -1.34375000     -3.25380000     -4.07574000
  O     -1.70906000     -4.11579000     -5.06400000
  C     -1.55304000     -4.64687000      2.11775000
  O     -1.98651000     -5.84045000      2.69544000
  C      2.88034000      3.82474000      1.14762000
  O      3.56234000      4.85245000      1.62111000
  C      3.67822000     -3.34681000     -0.90541900
  O      4.51031000     -4.32645000     -1.02517000
  C     -4.61382000     -3.35085000      0.83937400
  O     -5.71003000     -3.98492000      1.34539000
  C     -0.67847700      1.57778000     -4.69469000
  O     -1.00591000      1.94724000     -5.88412000
  C     -0.20221800      2.91669000      4.63823000
  O     -0.14216300      3.63833000      5.78542000
  C      1.93883000      3.42341000     -3.68048000
  O      2.27195000      4.29342000     -4.60048000
  C     -2.70799000      0.92573600      5.03751000
  O     -3.39204000      1.07522000      6.18908000
  C      2.70402000      0.81692700     -4.14858000
  O      3.62778000      1.12968000     -5.04130000
  C      0.64972200     -1.52188000     -5.07214000
  O      0.78516200     -1.67079000     -6.39203000
  C      0.11533100      4.92701000      2.13794000
  O      0.13110600      6.17039000      2.68632000
  C      1.37355000     -4.41122000     -2.55176000
  O      1.57747000     -5.52543000     -3.21567000
  C      4.83117000     -1.44814000      1.03710000
  O      6.03504000     -1.83467000      1.41757000
  C     -3.92611000     -2.44675000     -2.06087000
  O     -4.70470000     -3.34875000     -2.56418000
  C     -4.60210000     -0.48162900      3.10235000
  O     -5.86519000     -0.13983800      3.14481000
  C      2.82504000     -3.67348000      2.44208000
  O      3.58779000     -4.60192000      3.06490000
  C      2.87959000      2.04430000      3.84737000
  O      3.68140000      2.59395000      4.77755000
  C      0.75067200     -0.30986000      5.16606000
  O      0.72697300     -0.41515100      6.50596000
  C      0.96723800      5.10494000     -0.92444600
  O      1.33599000      6.37643000     -1.22654000
  C      0.56159900     -3.17013000      4.20675000
  O      0.70459100     -3.91255000      5.29938000
  C      3.62035000     -2.18933000     -3.73995000
  O      4.24882000     -2.80898000     -4.65361000
  C      1.08006000     -5.13618000      0.52310800
  O      1.32519000     -6.46486000      0.63953100
  C      4.95040000      0.03775980     -1.77326000
  O      6.16772000     -0.16548200     -2.14989000
  C     -2.04549000     -4.77446000     -1.25830000
  O     -2.59350000     -5.98560000     -1.43107000
  C     -4.60134000      2.66908000      0.48688100
  O     -5.58967000      3.48604000      0.45897200
  C     -2.78913000      3.39484000      2.74092000
  O     -3.55828000      4.26552000      3.29904000
  C     -2.13159000      4.61141000     -0.22333300
  O     -2.72122000      5.75151000     -0.14718300
  C     -5.21176000      0.03236470     -0.75387500
  O     -6.46797000     -0.06640060     -1.07612000
  C     -1.19958000      4.11097000     -3.49051000
  O     -1.57414000      5.23473000     -4.11845000
