#B3LYP/6-31+G(d) OPT FREQ

110, Energy = -12367.90252885 au

0 1
 Ni     -0.63390300     -3.36766000     -2.71576000
 Ni      0.81873800     -0.24277200     -1.46534000
 Ni     -2.97298000     -2.74981000     -1.98401000
 Ni      2.83334000      1.86900000      2.24879000
 Ni      2.97780000      0.44838700     -0.12072400
 Ni      0.13237600      2.30235000     -1.56045000
 Ni     -1.54042000      0.46298300     -0.60932100
 Ni      0.36008900      2.52874000      3.02310000
 Ni      1.48530000     -2.80276000     -1.39721000
 Ni     -0.44972000     -3.25669000      1.74538000
 Ni     -0.86067700     -2.03783000     -0.54861800
 Ni     -0.21953200     -4.60072000     -0.43264400
 Ni      1.73414000     -2.64326000      3.05935000
 Ni     -3.41537000      0.00285346      2.57588000
 Ni     -1.06696000     -0.68518900      1.63906000
 Ni      2.02191000     -3.87391000      0.90438500
 Ni      3.42462000     -0.86327800      2.19022000
 Ni      1.14452000     -1.61329000     -3.70408000
 Ni     -2.69711000     -2.37800000      2.61851000
 Ni     -1.30640000     -0.89726000     -2.83651000
 Ni     -0.66502500     -1.74660000      4.06335000
 Ni      1.26814000     -1.39743000      0.81801900
 Ni      3.25671000     -0.93856300     -2.31243000
 Ni      0.40417500      0.99573800     -3.86459000
 Ni     -1.38524000      0.63173100      3.97004000
 Ni     -1.79519000      1.87515000      1.61279000
 Ni     -2.49995000     -3.87132000      0.27867200
 Ni     -3.75840000     -0.21263400     -1.98298000
 Ni      2.39969000      3.00244000     -0.17942100
 Ni      1.05667000      0.00180341      3.19737000
 Ni     -0.07917780      3.73977000      0.65917000
 Ni     -2.28806000      3.05534000     -0.66005900
 Ni      3.70079000     -2.26388000     -0.00332419
 Ni      0.60368100      1.12356000      0.78066100
 Ni     -1.98666000      1.60198000     -2.95640000
 Ni     -4.04340000      1.08694000      0.12502500
 Ni      2.65069000      1.62453000     -2.45543000
 Ni     -3.42810000     -1.37616000      0.18187900
  C      4.35463000      2.59517000     -0.67063600
  O      5.50190000      3.21341000     -0.84709800
  C      2.13699000     -0.30341400     -4.85515000
  O      2.62691000     -0.39274100     -6.10086000
  C      4.25765000      3.12970000      2.26685000
  O      5.17953000      3.58745000      3.02809000
  C      3.35401000      2.40319000     -4.00342000
  O      4.27781000      2.91233000     -4.71929000
  C     -1.11222000     -0.01238250     -4.96633000
  O     -1.56788000     -0.13447200     -6.21778000
  C     -0.65170600     -5.31485000      1.44495000
  O     -1.58754000     -6.20260000      1.52900000
  C     -1.73103000     -4.71608000     -1.80678000
  O     -2.03963000     -5.82199000     -2.41220000
  C      2.12496000     -4.84685000     -1.43062000
  O      2.06327000     -6.14349000     -1.70166000
  C      0.23165600      2.76232000     -4.55305000
  O      0.30394900      3.27998000     -5.73606000
  C     -1.32698000      4.97576000     -0.62325400
  O     -1.60549000      6.26495000     -0.77434800
  C      0.72534100     -4.88149000      2.23243000
  O      1.37991000     -5.87739000      2.72357000
  C      2.19498000      4.70142000      0.70789800
  O      2.82951000      5.84978000      0.80793200
  C     -4.52258000      2.62902000     -1.03030000
  O     -5.60008000      3.41038000     -1.16669000
  C     -4.06791000     -3.24410000     -0.55444300
  O     -5.15289000     -3.94538000     -0.66248700
  C     -4.71218000     -2.03680000      2.15009000
  O     -5.78135000     -2.74139000      2.57315000
  C     -2.80822000     -0.71718900      4.29281000
  O     -3.54122000     -0.80810300      5.35947000
  C     -2.04382000      3.54361000     -2.96966000
  O     -2.53650000      4.46978000     -3.80112000
  C      5.00082000      0.00658711     -2.10080000
  O      6.11459000     -0.25822600     -2.71504000
  C     -5.15217000     -0.36438700     -0.73147800
  O     -6.41201000     -0.57779600     -0.89343500
  C      1.44438000      2.73827000      4.55370000
  O      1.73195000      3.51625000      5.54391000
  C      3.32086000      0.14691500      3.99392000
  O      4.02327000      0.13607700      5.14842000
  C      2.97181000     -3.00714000     -3.36873000
  O      3.66432000     -3.87656000     -4.09882000
  C     -3.58070000     -1.81679000     -3.77831000
  O     -4.34784000     -2.42419000     -4.68886000
  C     -0.00565217     -0.12991800      4.97202000
  O      0.19984200      0.00508407      6.24313000
  C      1.43606000      4.54535000     -2.17267000
  O      1.72445000      5.59487000     -2.86394000
  C      3.57175000     -2.84158000      2.34077000
  O      4.52969000     -3.41353000      3.00288000
  C     -0.12710200      4.67136000      2.40633000
  O     -0.18440100      5.89097000      2.93091000
  C     -1.83996000      2.45525000      4.14702000
  O     -2.44318000      3.15671000      5.13256000
  C      1.01023000     -2.38046000      5.06598000
  O      1.29217000     -3.33247000      5.99202000
  C     -2.97820000      3.74072000      1.40364000
  O     -3.75527000      4.60894000      2.00701000
  C     -1.73953000     -3.71300000      3.96542000
  O     -2.11814000     -4.63244000      4.87756000
  C     -3.99513000      0.87012400     -3.69128000
  O     -4.97705000      1.18037000     -4.52949000
  C     -0.21953100     -2.76103000     -4.78595000
  O     -0.13105000     -3.60055000     -5.83714000
  C     -4.76842000      1.41010000      2.05458000
  O     -6.03525000      1.58013000      2.52782000
  C      4.65388000     -3.60244000     -1.21380000
  O      5.63073000     -4.37426000     -0.90352400
  C      4.97800000     -0.23783100      1.05639000
  O      6.30709000     -0.08422050      1.14916000

