110
Energy = -12768.26703181 au
 Ni      0.35157600     -3.44540000     -2.40035000
 Ni     -1.55214000     -0.43376400     -0.88955300
 Ni      1.54881000     -3.86181000     -0.23196600
 Ni     -1.47897000      4.08548000     -0.11498500
 Ni     -2.34212000      2.09979000     -1.66394000
 Ni     -2.80330000     -0.08624190      1.41489000
 Ni     -0.36690800     -0.91901100      1.38636000
 Ni     -0.22983800      3.61136000      2.20243000
 Ni     -0.28031200     -1.01943000     -3.39873000
 Ni      3.08925000      0.50069600     -1.73338000
 Ni      0.90496700     -1.29054000     -0.87630900
 Ni      2.23438000     -1.82626000     -3.03120000
 Ni      2.23728000      2.85868000     -2.38471000
 Ni      2.87412000      0.27122200      2.97632000
 Ni      1.55357000      0.70618900      0.68635600
 Ni      1.63405000      0.89999200     -3.80205000
 Ni     -0.17406500      3.71743000     -2.29068000
 Ni     -2.22705000     -2.39958000     -2.64211000
 Ni      4.11055000      0.01340350      0.62438400
 Ni     -0.90388800     -3.10873000     -0.23382800
 Ni      3.56888000      2.31973000      0.08656440
 Ni      0.34810500      1.16937000     -1.57832000
 Ni     -2.73253000      0.14036000     -3.20677000
 Ni     -3.47267000     -2.06565000     -0.17597300
 Ni      2.34030000      2.64855000      2.18820000
 Ni      0.25474100      1.02080000      3.10760000
 Ni      3.34682000     -2.11443000     -0.78355100
 Ni      0.08830300     -3.40889000      2.18772000
 Ni     -3.34084000      2.45567000      0.68953600
 Ni      1.12099000      3.40415000     -0.02993160
 Ni     -2.14846000      1.85735000      2.97976000
 Ni     -1.66577000     -0.67862100      3.76741000
 Ni     -0.74311500      1.76804000     -3.87756000
 Ni     -0.87773900      1.57943000      0.66030600
 Ni     -2.27602000     -2.55938000      2.09887000
 Ni      0.78599500     -1.37508000      3.79649000
 Ni     -4.13211000      0.50887100     -0.91797200
 Ni      2.10883000     -1.80588000      1.44350000
  C     -4.28325000     -2.68703000      1.87072000
  O     -5.27731000     -3.39635000      2.40117000
  C     -5.12310000     -0.34122500      0.62551100
  O     -6.42476000     -0.33772600      0.97551700
  C      0.37379000     -4.87258000     -1.26059000
  O      0.33093700     -6.12225000     -1.54849000
  C     -4.40649000      2.35678000     -0.87304300
  O     -5.46694000      3.06060000     -1.11292000
  C      1.45200000     -3.22105000      3.74239000
  O      1.86972000     -4.02048000      4.77957000
  C      1.81231000      2.38353000      4.13787000
  O      2.07847000      2.96357000      5.33538000
  C     -0.23682700     -0.18612800      4.84060000
  O     -0.21933200     -0.06247750      6.12695000
  C      2.76102000     -3.58721000     -1.96468000
  O      3.59915000     -4.47768000     -2.41042000
  C     -1.17182000      2.90801000      4.34775000
  O     -1.54028000      3.52676000      5.47631000
  C      4.09338000     -2.04290000      2.01958000
  O      4.96290000     -2.81986000      2.64650000
  C      0.75887000      3.27800000     -3.85177000
  O      0.91990700      4.18912000     -4.76269000
  C     -4.59171000      0.67038500     -2.90471000
  O     -5.69386000      0.83110100     -3.69749000
  C      0.54982000      0.22314800     -5.32169000
  O      0.87317600      0.12390000     -6.63333000
  C     -1.38954000     -2.60289000      3.84098000
  O     -1.80553000     -3.32735000      4.82518000
  C      3.07484000      4.05938000     -0.67368600
  O      3.56724000      5.05416000     -1.34121000
  C      2.61137000     -4.45619000      1.28335000
  O      3.31879000     -5.53781000      1.49744000
  C     -2.50574000      2.12730000     -4.63095000
  O     -2.88445000      2.51429000     -5.84153000
  C      3.20225000      1.87856000     -3.60761000
  O      4.05172000      2.27831000     -4.48817000
  C      5.05945000     -1.26128000     -0.58807800
  O      6.36153000     -1.67111000     -0.76974000
  C     -2.72605000     -4.13876000     -0.10101800
  O     -3.20038000     -5.40420000     -0.18267100
  C     -0.63918100     -5.08592000      1.67269000
  O     -0.78769000     -6.26463000      2.20720000
  C     -2.59142000      4.37889000      1.59824000
  O     -3.23995000      5.59064000      1.78159000
  C     -4.17056000      2.07643000      2.53050000
  O     -5.24612000      2.61713000      3.17383000
  C      3.85084000     -0.88058300     -3.58151000
  O      4.81532000     -1.04495000     -4.48904000
  C      0.89890400     -2.64964000     -4.03853000
  O      1.05359000     -3.31728000     -5.14173000
  C      0.18399200      4.87753000     -0.78584700
  O      0.41140900      6.15267000     -0.80850700
  C     -3.51349000     -0.15199200      3.98107000
  O     -4.42551000     -0.22518400      4.94070000
  C      4.69842000      1.28344000     -0.91603400
  O      5.84944000      1.67402000     -1.34546000
  C      2.75241000     -0.59004200      4.80338000
  O      3.51159000     -0.74167200      5.87521000
  C     -1.62123000     -4.15629000     -3.24501000
  O     -2.11056000     -5.07122000     -4.09248000
  C      1.05068000      5.10970000      2.26447000
  O      1.02846000      6.20184000      2.97697000
  C      3.44496000      3.94142000      1.06548000
  O      4.31388000      4.59745000      1.77223000
  C      4.34258000      1.11229000      2.17780000
  O      5.51468000      1.24690000      2.70549000
  C     -4.33135000     -2.20377000     -2.01145000
  O     -5.47788000     -2.83512000     -2.37368000
  C     -2.07984000      3.94696000     -2.00482000
  O     -2.83347000      4.78595000     -2.64561000
  C     -2.00074000     -1.25467000     -4.24043000
  O     -2.31398000     -1.47897000     -5.48417000
