#B3LYP/6-31+G(d) OPT FREQ

110, Energy = -12637.68575969 au

0 1
 Ni      0.19221600     -3.86304000     -1.86603000
 Ni     -1.17086000     -1.37382000      0.45332200
 Ni      2.52574000     -3.65942000     -0.78188000
 Ni     -2.06559000      3.16599000      1.18723000
 Ni     -2.82819000      0.75028200      0.28845500
 Ni     -0.95285300     -0.99312100      3.08700000
 Ni      1.18544000     -1.11165000      1.50877000
 Ni      0.45029900      3.36787000      2.17227000
 Ni     -1.45047000     -1.84257000     -2.13452000
 Ni      1.67518000      0.39127500     -3.02789000
 Ni      0.96301200     -1.53195000     -1.02863000
 Ni      0.71517800     -1.85672000     -3.80169000
 Ni     -0.06688600      2.50434000     -2.90716000
 Ni      4.13638000      1.02185000      0.89545500
 Ni      1.74476000      0.80186400     -0.15752900
 Ni     -0.85170500      0.10122900     -3.85839000
 Ni     -2.26494000      2.73132000     -1.44774000
 Ni     -2.13481000     -3.76600000     -0.43733100
 Ni      3.92198000      0.67230100     -1.63228000
 Ni      0.30717900     -3.80702000      0.58754800
 Ni      2.49185000      2.75241000     -1.97787000
 Ni     -0.62217000      0.54015200     -1.21679000
 Ni     -3.57815000     -1.62316000     -0.61967000
 Ni     -1.82574000     -3.24410000      2.00361000
 Ni      2.67789000      3.15048000      0.79992000
 Ni      1.96191000      1.38425000      2.57181000
 Ni      3.08375000     -1.76430000     -2.59064000
 Ni      2.64978000     -3.22745000      1.79686000
 Ni     -2.54628000      1.11423000      2.94080000
 Ni      0.16263800      3.02343000     -0.32485100
 Ni     -0.10452100      1.41013000      4.00397000
 Ni      1.36525000     -0.79301200      4.13890000
 Ni     -3.10609000      0.29657800     -2.33615000
 Ni     -0.39283700      0.95964400      1.33811000
 Ni      0.66266300     -3.10935000      3.19762000
 Ni      3.55339000     -0.80684400      2.56037000
 Ni     -3.34689000     -1.25940000      1.95550000
 Ni      3.75023000     -1.36335000      0.00492969
  C      3.41086000      1.48974000     -3.22637000
  O      4.21879000      1.71043000     -4.20443000
  C      2.41807000      5.00030000      1.26291000
  O      3.23964000      5.97662000      1.51486000
  C      4.32855000      2.31325000     -0.48913300
  O      5.45579000      2.95192000     -0.61700500
  C      3.02755000     -3.83150000     -2.94426000
  O      3.90570000     -4.82779000     -3.16269000
  C      2.04850000      0.80488600      5.08347000
  O      2.49716000      1.05689000      6.32408000
  C     -0.05767440     -3.82178000     -3.93773000
  O     -0.02914910     -4.73128000     -4.93219000
  C     -3.05795000     -4.09575000     -2.20535000
  O     -3.72291000     -5.18747000     -2.44861000
  C     -2.43234000     -1.75785000     -3.93228000
  O     -3.10513000     -2.48104000     -4.81954000
  C      0.20945100     -5.25668000     -0.63241700
  O      0.39033700     -6.54498000     -0.91855600
  C     -1.90776000      2.56116000      4.22469000
  O     -2.40708000      2.99143000      5.40624000
  C      0.77758700     -2.84745000      5.27543000
  O      1.07702000     -3.86430000      6.04984000
  C     -4.19755000      2.01083000     -1.90790000
  O     -5.32344000      2.55579000     -2.43102000
  C     -3.99429000     -0.09376760      3.54383000
  O     -5.01369000     -0.05946110      4.42963000
  C      1.39867000     -4.64173000      1.87121000
  O      1.69806000     -5.91163000      1.99887000
  C      2.34751000      4.56175000     -2.47181000
  O      3.06160000      5.44705000     -3.06595000
  C      0.14849200      4.84632000     -0.86968600
  O      0.12396200      6.11976000     -0.81591000
  C     -4.66134000     -1.12201000     -2.33347000
  O     -5.89827000     -1.30876000     -2.81401000
  C     -4.82920000      0.20163200      0.58726200
  O     -6.08575000      0.65381100      0.68756100
  C      1.14327000      2.92836000      3.89057000
  O      1.61157000      3.79279000      4.73346000
  C      4.63649000     -1.07372000     -1.71385000
  O      5.85733000     -1.40608000     -2.02232000
  C     -1.52246000      3.86251000     -3.11879000
  O     -1.90897000      4.81986000     -3.97312000
  C      3.78833000      1.79706000      2.57898000
  O      4.55343000      2.30944000      3.49957000
  C      5.03536000     -0.58256600      1.29242000
  O      6.32018000     -0.68646600      1.45263000
  C      0.17019600     -0.72941300     -5.18881000
  O      0.21303000     -0.75376100     -6.46582000
  C     -0.72536000     -0.26969700      4.81427000
  O     -1.26098000     -0.62791900      5.93595000
  C      2.45813000     -1.37858000     -4.29573000
  O      3.13689000     -1.63247000     -5.39650000
  C     -1.42117000     -4.83955000      1.00734000
  O     -1.76049000     -6.00859000      1.45759000
  C      4.01629000     -3.20280000      0.43184400
  O      5.19561000     -3.72782000      0.59401100
  C      3.20245000     -2.50905000      3.88660000
  O      4.16187000     -2.92922000      4.78883000
  C     -2.70277000     -2.54908000      3.86461000
  O     -3.25522000     -3.38561000      4.76030000
  C     -4.01651000     -2.77094000      0.88353300
  O     -5.21670000     -3.31471000      1.07865000
  C     -1.05580000      4.74366000      1.99248000
  O     -1.38792000      5.91150000      2.59846000
  C     -2.61236000      1.21425000     -4.22773000
  O     -3.31886000      1.45995000     -5.34937000
  C      0.90053900      2.19597000     -4.53818000
  O      1.17314000      2.78169000     -5.70554000
  C     -3.82776000      2.71918000      2.03760000
  O     -4.81802000      3.49468000      2.53550000
  C     -2.86278000      4.31883000     -0.35667900
  O     -3.68429000      5.37796000     -0.51404800

