110
Energy = -12552.52516805 au
 Ni      2.42805000     -1.98359000     -2.98383000
 Ni     -0.76114300     -1.58624000     -1.00647000
 Ni      3.82292000     -1.73070000     -0.79235000
 Ni     -3.76269000      1.45202000      0.78016000
 Ni     -3.17460000     -0.19109400     -1.34354000
 Ni     -1.83966000     -2.79583000      1.33097000
 Ni      0.59861800     -1.45980000      1.17343000
 Ni     -2.64607000      1.56672000      3.16216000
 Ni      0.17442100     -0.44814200     -3.24350000
 Ni      1.68959000      2.32153000     -1.34362000
 Ni      1.54669000     -0.38043900     -1.03660000
 Ni      2.48300000      0.63830800     -3.22147000
 Ni     -0.51667000      3.69889000     -1.68464000
 Ni      2.09409000      1.29764000      3.23044000
 Ni      0.73301500      1.14738000      0.92915800
 Ni      0.16567100      2.12707000     -3.59560000
 Ni     -2.84444000      2.48682000     -1.56459000
 Ni      0.05854370     -3.13128000     -2.96354000
 Ni      3.19760000      2.37124000      0.82093700
 Ni      1.61269000     -3.14815000     -0.68089700
 Ni      0.79835700      3.79176000      0.70753600
 Ni     -0.67005800      1.02368000     -1.29443000
 Ni     -2.13993000     -1.74778000     -3.19697000
 Ni     -0.96518300     -4.21900000     -0.85713200
 Ni     -0.07111150      2.90692000      2.95489000
 Ni     -0.30217800      0.25377300      3.30464000
 Ni      3.95875000      0.85321800     -0.95545600
 Ni      2.93562000     -2.77605000      1.52684000
 Ni     -4.08070000     -1.28630000      0.79304300
 Ni     -1.44731000      2.55295000      0.76146300
 Ni     -2.73175000     -1.16927000      3.18359000
 Ni     -0.26497500     -2.43146000      3.37921000
 Ni     -2.08985000      1.01741000     -3.55525000
 Ni     -1.62699000     -0.08495990      0.94298800
 Ni      0.48931100     -4.06481000      1.46076000
 Ni      2.10091000     -1.29176000      3.53143000
 Ni     -3.04119000     -2.92196000     -1.08864000
 Ni      2.93094000     -0.32321100      1.15744000
  C      3.76955000      2.07299000     -2.98145000
  O      4.68763000      2.74082000     -3.71118000
  C      4.98656000      2.90750000     -0.72193000
  O      6.09265000      3.47775000     -0.38160900
  C     -5.40228000      0.46476700      1.01118000
  O     -6.70840000      0.73934600      1.18227000
  C      3.45001000     -3.85058000     -1.88080000
  O      4.58197000     -4.56334000     -1.80494000
  C      4.23530000      1.19378000      2.47530000
  O      5.47718000      1.21703000      3.02010000
  C     -0.93725100      4.57108000      2.61172000
  O     -1.13118000      5.65820000      3.32700000
  C     -2.07625000     -2.93378000      3.39581000
  O     -2.59848000     -3.82150000      4.18427000
  C      1.64541000      2.55775000      4.62458000
  O      2.25020000      3.23614000      5.58367000
  C      5.48399000     -1.12854000      0.25659900
  O      6.52124000     -0.75114200     -0.40308300
  C     -3.94203000      2.91047000      2.83586000
  O     -4.75162000      3.58105000      3.62735000
  C      2.33359000      4.07653000      1.94389000
  O      2.93482000      5.24025000      2.33154000
  C     -3.78503000      0.07808030      4.26928000
  O     -4.63373000      0.06974800      5.31170000
  C      1.97994000      4.42941000     -1.28898000
  O      2.76663000      5.37735000     -1.79241000
  C     -2.60206000     -4.76949000      0.20209500
  O     -3.69928000     -5.40046000     -0.09960160
  C     -4.46870000     -1.67222000     -1.02102000
  O     -5.65707000     -1.84016000     -1.52785000
  C      1.66553000     -3.44018000     -4.23973000
  O      2.14888000     -4.41429000     -5.03148000
  C     -4.44489000      1.64025000     -2.21009000
  O     -5.62359000      1.92949000     -2.78344000
  C     -0.65702100     -1.68178000     -4.88688000
  O     -0.52535100     -1.84252000     -6.21798000
  C      0.59776500     -5.14883000     -1.73891000
  O      0.87508700     -6.46004000     -1.93853000
  C     -1.64789000      2.24734000     -5.04659000
  O     -1.99363000      2.57613000     -6.27604000
  C     -3.60380000     -0.68000400     -3.91885000
  O     -4.59741000     -0.90355200     -4.81874000
  C      4.17737000     -1.11110000     -3.33921000
  O      5.10101000     -1.40092000     -4.28518000
  C     -1.33095000     -5.16227000      1.17014000
  O     -1.19291000     -6.25623000      1.86587000
  C      3.22649000     -0.37442800      5.13026000
  O      3.86819000     -0.64941500      6.19260000
  C     -0.19408100     -1.06541000      4.93195000
  O     -0.39999200     -0.95499400      6.27979000
  C     -1.94058000     -3.79130000     -2.81710000
  O     -2.38837000     -4.73673000     -3.58518000
  C     -4.48612000     -2.56104000      2.13803000
  O     -5.64412000     -3.10634000      2.53006000
  C      5.03790000     -1.83066000      1.53439000
  O      5.63817000     -2.39936000      2.52069000
  C      0.83415600      3.90123000     -3.80587000
  O      1.02730000      4.70652000     -4.83149000
  C     -0.54566600      5.09806000     -0.24829600
  O     -0.72527800      6.44904000     -0.28960400
  C     -1.08605000      1.82969000      4.20421000
  O     -1.09863000      2.15690000      5.46308000
  C     -2.10447000      4.14155000     -2.80423000
  O     -2.55173000      5.20278000     -3.49711000
  C      1.63111000      0.51057300     -4.98795000
  O      1.90410000      0.43469500     -6.29774000
  C     -3.56962000      3.66614000     -0.00023364
  O     -4.26973000      4.80622000      0.17863800
  C      1.44336000     -3.31348000      3.37653000
  O      1.77773000     -4.10274000      4.35058000
  C      2.24674000     -4.43057000      0.87019700
  O      2.83825000     -5.57958000      0.97112500
