110
Energy = -12384.28962663 au
 Ni      3.10527000     -3.28745000      0.50980600
 Ni      2.02778000      0.27424400      0.57990500
 Ni      2.32109000     -3.65545000     -1.75612000
 Ni     -1.43233000      3.16690000      1.68705000
 Ni      0.88965700      1.93493000      2.36505000
 Ni      2.14610000      2.22164000     -1.25541000
 Ni      1.05327000     -0.03255190     -1.78563000
 Ni     -2.40623000      2.82320000     -0.81545700
 Ni      2.19596000     -1.90646000      2.49755000
 Ni     -1.28905000     -2.69292000      0.94827700
 Ni      1.00775000     -1.98079000     -0.11508300
 Ni      0.94041600     -3.99735000      1.48840000
 Ni     -2.49478000     -1.20060000      2.75096000
 Ni     -2.20524000     -1.15304000     -3.24985000
 Ni     -1.20197000     -0.73977200     -0.75056800
 Ni     -0.29845200     -2.48027000      3.37151000
 Ni     -1.45180000      1.16815000      3.41746000
 Ni      4.21788000     -0.87893200      1.25700000
 Ni     -2.30388000     -3.02754000     -1.46929000
 Ni      3.66488000     -1.37859000     -1.18140000
 Ni     -3.59376000     -1.46526000      0.28382200
 Ni     -0.19815300     -0.44513000      1.61665000
 Ni      3.18936000      0.52680700      2.91220000
 Ni      4.31290000      0.95725400     -0.34402400
 Ni     -3.48389000      0.47061600     -1.44152000
 Ni     -1.20041000      1.25103000     -2.45680000
 Ni     -0.05888500     -4.17829000     -0.74779000
 Ni      2.40423000     -1.52376000     -3.56849000
 Ni      0.91976500      3.82026000      0.62117400
 Ni     -2.45646000      0.85333100      0.99378400
 Ni     -0.10600800      3.50764000     -1.79543000
 Ni      1.29046000      1.85182000     -3.59895000
 Ni      0.82901400     -0.21562500      4.08537000
 Ni     -0.14979300      1.52067000     -0.06176050
 Ni      3.25721000      0.65952300     -2.93640000
 Ni      0.17806100     -0.33590500     -4.26624000
 Ni      3.17279000      2.51700000      1.23990000
 Ni     -0.02757790     -2.26811000     -2.60276000
  C      4.11844000     -1.61860000      2.92409000
  O      5.10679000     -2.17869000      3.54541000
  C      2.04188000     -3.59358000     -3.94240000
  O      2.74860000     -4.46837000     -4.69334000
  C      4.49219000      2.93349000     -0.84204400
  O      5.60641000      3.54644000     -1.28034000
  C     -1.17461000      4.95030000     -1.12760000
  O     -1.43278000      6.21088000     -1.43466000
  C     -3.73250000     -2.68940000      2.14323000
  O     -4.70756000     -3.43358000      2.71541000
  C     -0.96133600     -1.80402000     -4.51220000
  O     -1.14055000     -2.44675000     -5.62182000
  C      1.92193000     -0.26093700     -4.89340000
  O      2.35119000     -0.31011100     -6.11483000
  C     -0.62394400      0.42920500      5.17754000
  O     -0.82041600      0.56292800      6.51783000
  C     -0.84353800      1.29454000     -4.94126000
  O     -1.22298000      1.69073000     -6.15961000
  C      2.52089000      0.92881800      4.77331000
  O      3.22864000      1.05297000      5.91879000
  C     -2.60208000     -4.39051000     -0.17625800
  O     -3.27303000     -5.55860000     -0.07943800
  C      5.42273000     -0.55679600     -0.15808900
  O      6.69657000     -0.73225600     -0.30254000
  C      0.26012000      3.67381000     -3.86824000
  O      0.44219000      4.69217000     -4.72719000
  C     -4.65345000      0.75016400      1.58295000
  O     -5.67304000      1.17601000      2.01116000
  C      2.68066000     -3.98283000      2.15994000
  O      3.23891000     -4.92460000      2.84527000
  C     -0.51994100      4.99676000      1.65413000
  O     -0.65326600      6.20689000      2.20216000
  C     -3.67765000      0.05099760     -3.71769000
  O     -4.53534000      0.14269300     -4.72696000
  C      2.17063000      3.86684000      1.87333000
  O      3.35307000      5.54974000      2.57366000
  C     -0.95711700     -4.36941000     -2.86284000
  O     -0.99384100     -5.46029000     -3.65489000
  C      3.09997000      2.38179000     -3.58547000
  O      3.84120000      3.04167000     -4.41398000
  C     -2.67300000      3.05340000     -2.81510000
  O     -3.34349000      3.76948000     -3.72158000
  C     -3.47238000      3.65552000      0.62193400
  O     -4.39523000      4.61506000      0.68162200
  C      1.67145000     -4.97780000     -0.49780700
  O      1.85028000     -6.26482000     -0.65289000
  C      4.07009000     -3.24330000     -1.08907000
  O      5.19879000     -3.88991000     -1.15478000
  C      4.14396000     -1.00326000     -2.98360000
  O      5.32424000     -1.24027000     -3.47812000
  C     -4.98970000      1.60271000     -1.15019000
  O     -6.14135000      1.85827000     -1.67190000
  C     -3.80297000     -2.72543000     -2.74741000
  O     -4.59287000     -3.48509000     -3.49435000
  C     -3.33313000     -0.05692850      4.04251000
  O     -4.19255000     -0.15303600      5.05182000
  C      0.46313100      2.93510000      3.92483000
  O      0.81537600      3.73907000      4.90441000
  C      4.50132000      1.62664000      2.19512000
  O      5.57214000      2.10109000      2.74121000
  C      1.98345000      4.60422000     -1.06748000
  O      2.64278000      5.73068000     -1.39663000
  C     -2.48056000      2.89696000      3.47096000
  O     -3.17902000      3.62988000      4.36195000
  C     -0.69681400     -4.77207000      2.25102000
  O     -1.05861000     -5.98968000      2.68137000
  C     -1.80887000     -2.83046000      4.44436000
  O     -2.16724000     -3.44756000      5.55682000
  C     -5.35696000     -1.52747000     -0.36543600
  O     -6.48905000     -2.01857000     -0.47103100
  C      1.35032000     -2.03800000      4.23211000
  O      1.90582000     -2.63198000      5.24871000
