#B3LYP/6-31+G(d) OPT FREQ

110, Energy = -12623.82575669 au

0 1
 Ni     -0.21295300     -3.28517000     -2.16646000
 Ni     -1.69837000      0.02991320     -0.86829400
 Ni      0.37590100     -4.02245000      0.29207800
 Ni     -0.67663800      4.38630000      0.15028300
 Ni     -1.72120000      2.64512000     -1.69626000
 Ni     -3.57272000      0.61433600      1.14203000
 Ni     -1.07722000     -0.64941900      1.54035000
 Ni     -0.14848500      3.64857000      2.49058000
 Ni     -0.13651300     -0.67550700     -2.89286000
 Ni      2.85667000     -0.21802300     -0.72606800
 Ni      0.45777000     -1.36063000     -0.44312000
 Ni      2.03394000     -2.08272000     -2.49266000
 Ni      2.98768000      2.37665000     -1.47206000
 Ni      1.89165000     -0.29683900      3.76076000
 Ni      1.23034000      0.47807100      1.24870000
 Ni      2.21431000      0.46449200     -3.21894000
 Ni      0.79916000      3.71591000     -1.86250000
 Ni     -2.46429000     -1.74265000     -2.61345000
 Ni      3.48274000     -0.91555400      1.65413000
 Ni     -1.98595000     -2.55256000     -0.11057900
 Ni      3.63835000      1.66585000      0.98628200
 Ni      0.61252600      1.15797000     -1.15831000
 Ni     -2.39205000      0.80486300     -3.35167000
 Ni     -4.11166000     -1.20933000     -0.56204500
 Ni      1.97633000      2.32256000      2.93380000
 Ni     -0.38479600      1.23963000      3.53144000
 Ni      2.67621000     -2.69930000     -0.02517010
 Ni     -1.28814000     -3.22433000      2.28421000
 Ni     -3.05820000      3.18161000      0.40808600
 Ni      1.62085000      3.27450000      0.60327300
 Ni     -2.50471000      2.48548000      2.79808000
 Ni     -2.68272000      0.00749618      3.59551000
 Ni     -0.04139110      1.87014000     -3.67252000
 Ni     -0.91513600      1.83485000      0.80510600
 Ni     -3.37436000     -1.79288000      1.93471000
 Ni     -0.43046300     -1.28384000      3.95524000
 Ni     -3.99915000      1.37715000     -1.41164000
 Ni      1.13069000     -2.03851000      1.96361000
  C     -5.13905000      0.35122800     -0.33167400
  O     -6.43493000      0.33938400     -0.35136600
  C      3.45082000      2.09401000     -3.39510000
  O      4.49862000      2.54449000     -4.18525000
  C      2.43823000      4.14008000     -0.97007700
  O      3.13538000      5.23471000     -1.02083000
  C     -2.63323000      1.62968000      4.50490000
  O     -3.20697000      2.02856000      5.58729000
  C      3.42399000     -3.54684000     -1.65666000
  O      4.30001000     -4.52099000     -2.01941000
  C     -3.77518000      3.24756000     -1.34806000
  O     -4.61586000      4.16062000     -1.71726000
  C      4.69421000     -1.24034000     -0.13121500
  O      5.99246000     -1.45733000     -0.39136700
  C     -2.07444000      4.33984000      1.89981000
  O     -2.68683000      5.41493000      2.29583000
  C      2.09517000      1.38609000      4.97284000
  O      2.96544000      1.94079000      5.85083000
  C      0.53937100     -3.52539000      3.49306000
  O      0.96736000     -4.46277000      4.37984000
  C     -1.83161000     -4.44953000     -1.16012000
  O     -2.51495000     -5.59462000     -1.34689000
  C      2.90547000     -1.98239000      4.17601000
  O      3.47308000     -2.33791000      5.41523000
  C     -1.15028000      5.05029000     -1.88248000
  O     -1.39673000      6.41299000     -1.86118000
  C     -1.39678000     -2.94165000     -3.88237000
  O     -1.76491000     -3.69500000     -4.96001000
  C      3.83615000     -0.94911000     -3.08504000
  O      4.91734000     -1.18251000     -3.90306000
  C     -4.34149000     -0.45496400      2.80663000
  O     -5.48862000     -0.62552600      3.38514000
  C      1.13474000     -4.63594000     -2.38681000
  O      1.21500000     -5.76108000     -3.10023000
  C     -1.79723000      2.62542000     -3.66214000
  O     -2.25285000      3.51354000     -4.49197000
  C     -4.24337000      0.73045600     -3.13925000
  O     -5.20695000      0.93797500     -3.96647000
  C     -4.13391000      2.33576000      1.72924000
  O     -5.34422000      2.65495000      2.08144000
  C      1.43166000     -2.03666000     -4.31398000
  O      1.73588000     -2.57159000     -5.51423000
  C     -1.52994000     -0.09031980     -4.90564000
  O     -1.85945000     -0.27745000     -6.17520000
  C      0.76048000      4.90393000      1.31771000
  O      1.19277000      6.05688000      1.72506000
  C     -2.07560000     -4.87796000      1.60065000
  O     -2.49359000     -5.87990000      2.29192000
  C     -4.11442000     -2.74864000      0.50907700
  O     -5.00767000     -3.68000000      0.60625800
  C     -0.37348900      2.98547000      4.27291000
  O     -0.38034300      3.76420000      5.30108000
  C     -2.19164000     -2.14132000      3.91004000
  O     -2.66572000     -2.73176000      4.96481000
  C      1.30953000      0.84559900     -4.93758000
  O      1.69567000      1.03016000     -6.18615000
  C      4.89476000      1.87705000     -0.59196800
  O      6.15247000      2.36564000     -0.64157600
  C      1.85534000     -5.40811000      0.91725900
  O      1.76692000     -6.68395000      0.95330800
  C      0.11288700      0.11299400      5.15889000
  O     -0.06536200      0.08965600      6.43981000
  C      0.85967400      3.74077000     -3.87272000
  O      1.08173000      4.74547000     -4.74051000
  C      3.57681000     -3.11922000      1.89145000
  O      4.46059000     -4.03442000      2.32080000
  C      3.30769000      3.28563000      1.94965000
  O      4.16282000      4.16369000      2.36306000
  C      4.63225000      0.47815300      2.52650000
  O      5.86921000      0.43181800      3.10007000
  C     -4.39888000     -2.21547000     -2.28260000
  O     -5.40873000     -2.79215000     -2.99331000

