110
Energy = -12698.07952102 au
 Ni      0.94493500     -3.64718000     -1.93333000
 Ni     -0.18071500     -0.01359890     -1.89214000
 Ni     -0.70676400     -4.14637000     -0.04167530
 Ni      0.60540600      4.23688000     -0.26323800
 Ni      0.97589200      2.43354000     -2.06789000
 Ni     -2.62325000      1.35916000     -1.92031000
 Ni     -1.74264000     -0.53153000      0.08037460
 Ni     -0.92838300      3.70588000      1.80948000
 Ni      2.14281000     -1.26884000     -2.06673000
 Ni      2.57149000     -1.23179000      1.66277000
 Ni      0.55420800     -1.74107000     -0.08675190
 Ni      2.97864000     -3.00007000     -0.17294300
 Ni      3.69191000      1.27386000      1.29365000
 Ni     -1.41975000     -0.40413100      3.73544000
 Ni      0.16547600      0.09710360      1.74377000
 Ni      4.07814000     -0.54426500     -0.39733700
 Ni      3.02210000      2.99268000     -0.47107000
 Ni      0.23943500     -1.78133000     -3.76557000
 Ni      0.86429600     -1.81441000      3.58229000
 Ni     -1.38697000     -2.45200000     -1.82304000
 Ni      2.05971000      0.74033400      3.45985000
 Ni      1.73473000      0.61167100     -0.23011700
 Ni      1.39149000      0.47939100     -3.89056000
 Ni     -2.14780000     -0.64056400     -3.64672000
 Ni     -0.30138100      2.07741000      3.62331000
 Ni     -2.38698000      1.37972000      2.02208000
 Ni      1.25965000     -3.52290000      1.70568000
 Ni     -2.98696000     -2.99554000      0.24713100
 Ni     -1.24887000      3.56700000     -1.91730000
 Ni      1.51110000      2.68863000      1.72039000
 Ni     -2.90989000      3.05501000     -0.04313580
 Ni     -4.05550000      0.61251200      0.18471100
 Ni      3.28743000      1.15920000     -2.19840000
 Ni     -0.57182600      1.80120000     -0.05508310
 Ni     -3.69961000     -1.28420000     -1.54605000
 Ni     -3.48189000     -1.08017000      1.93359000
 Ni     -0.88787500      1.64062000     -3.82223000
 Ni     -1.05388000     -2.52369000      1.98421000
  C     -4.31722000      3.16638000      1.27956000
  O     -5.22095000      4.11197000      1.41002000
  C      2.84831000      1.73741000     -4.27745000
  O      3.52583000      2.09877000     -5.38743000
  C      3.10695000     -3.27995000      1.72331000
  O      3.95187000     -4.01298000      2.38202000
  C     -3.08339000      0.44070700      4.18179000
  O     -3.89145000      0.64810000      5.22419000
  C     -0.07411740      3.46439000     -4.08657000
  O      0.11064200      4.12155000     -5.25429000
  C      0.66990300      3.62095000      3.12651000
  O      1.11023000      4.59203000      3.88470000
  C      0.07602580      4.82869000     -1.93592000
  O      0.17040300      6.00346000     -2.51403000
  C     -3.09653000      3.62333000     -1.91011000
  O     -3.81232000      4.44503000     -2.58627000
  C     -4.35375000     -1.39808000     -3.45800000
  O     -5.48521000     -1.70384000     -4.09192000
  C     -2.74318000     -3.71183000     -1.45874000
  O     -3.32463000     -4.68866000     -2.07169000
  C     -1.63673000     -2.49971000     -4.38133000
  O     -2.12753000     -3.17914000     -5.46929000
  C     -4.72696000      0.34612200      1.93963000
  O     -5.91204000      0.50459500      2.39664000
  C     -0.71623000     -1.80403000      4.92692000
  O     -0.93072200     -2.24465000      6.19498000
  C     -4.54480000     -1.93395000      0.26300800
  O     -5.70889000     -2.50092000      0.35054400
  C      2.39840000      4.37675000      0.73561000
  O      2.65000000      5.62731000      0.98510800
  C      0.30158800     -3.72548000      3.28794000
  O      0.21904300     -4.78397000      4.01273000
  C      4.00060000     -0.93817000     -2.99816000
  O      4.85109000     -1.44546000     -3.89994000
  C     -0.20596300      0.02876170     -4.97337000
  O     -0.22515000      0.00871646     -6.26916000
  C     -2.12885000     -4.38520000      1.14122000
  O     -2.61729000     -5.52777000      1.55458000
  C      4.71521000      1.21749000     -0.90219900
  O      5.93642000      1.45959000     -1.28295000
  C      5.00809000     -2.34205000      0.14045500
  O      6.25258000     -2.74661000     -0.16518100
  C      3.23551000      2.03739000      4.14908000
  O      3.88522000      2.43077000      5.21259000
  C      3.89888000      3.21924000      1.27496000
  O      5.04682000      3.68082000      1.61330000
  C     -3.18293000     -2.55949000      3.15687000
  O     -3.94414000     -3.37120000      3.90606000
  C      2.61678000     -1.43571000      4.41384000
  O      3.19559000     -1.84503000      5.54637000
  C     -4.92212000      1.24385000     -1.44479000
  O     -6.10766000      1.67799000     -1.90235000
  C      2.97594000     -4.14636000     -2.04738000
  O      3.74726000     -5.19693000     -2.36561000
  C      4.58679000     -0.19784400      2.29726000
  O      5.74957000     -0.46331700      2.92476000
  C     -2.70327000      1.15092000     -3.95920000
  O     -3.53943000      1.52976000     -4.89587000
  C     -1.91207000      3.01601000      3.26866000
  O     -2.59904000      3.74127000      4.09595000
  C      1.92960000     -2.71639000     -4.19173000
  O      2.44572000     -3.13095000     -5.34526000
  C      3.08737000      3.67290000     -2.34044000
  O      3.73533000      4.66984000     -2.96935000
  C      1.06722000     -5.15015000      0.32653800
  O      1.28271000     -6.50296000      0.48047100
  C     -1.45205000      5.19630000      0.59695000
  O     -1.75546000      6.47411000      0.93673800
  C      0.10472900      0.99128200      5.17758000
  O      0.07246860      1.40205000      6.46429000
  C     -0.46355400     -4.94884000     -2.42568000
  O     -0.44607400     -6.03128000     -3.19138000
