110
Energy = -11544.41984312 au
 Ni      2.06298000     -0.38242200     -3.57171000
 Ni      0.55756100     -2.26675000     -0.76654100
 Ni      3.12687000      1.30660000     -1.93776000
 Ni     -3.12357000     -2.74387000      1.89379000
 Ni     -1.74558000     -3.32124000     -0.27875400
 Ni      1.38818000     -3.06530000      1.51956000
 Ni      1.56148000     -0.59102300      0.88515600
 Ni     -2.06218000     -1.05901000      3.52493000
 Ni     -0.26875900     -1.46533000     -3.05599000
 Ni     -1.38988000      1.62588000     -1.56665000
 Ni      0.74937200      0.21541700     -1.41635000
 Ni     -0.11622300      1.02432000     -3.73568000
 Ni     -3.72859000      0.57485700     -1.10089000
 Ni      0.44292300      2.54619000      2.39498000
 Ni     -0.56014800      0.82934900      0.71905500
 Ni     -2.43702000     -0.04861550     -3.25340000
 Ni     -3.90270000     -1.92587000     -0.44269700
 Ni      1.86484000     -2.91044000     -2.92572000
 Ni     -0.39772500      3.35103000      0.08314320
 Ni      2.85598000     -1.19763000     -1.24985000
 Ni     -2.71607000      2.28258000      0.57516600
 Ni     -1.56415000     -0.84596900     -0.93238600
 Ni     -0.44531900     -3.98214000     -2.43517000
 Ni      2.70476000     -3.72030000     -0.61833700
 Ni     -1.86912000      1.47506000      2.88072000
 Ni      0.26596800      0.02917740      3.00974000
 Ni      0.93169100      2.70725000     -2.07650000
 Ni      3.90598000      0.48831200      0.39178600
 Ni     -0.93411600     -4.14142000      2.02694000
 Ni     -2.85827000     -0.23715200      1.20276000
 Ni      0.11163000     -2.46189000      3.68977000
 Ni      2.43308000     -1.38958000      3.20733000
 Ni     -2.59822000     -2.54557000     -2.59645000
 Ni     -0.75219300     -1.65270000      1.36948000
 Ni      3.72530000     -2.01121000      1.05288000
 Ni      2.59643000      1.10746000      2.55273000
 Ni      0.39852300     -4.78591000     -0.12804000
 Ni      1.74140000      1.88121000      0.22879900
  C      1.60183000     -3.71876000      4.59608000
  O      2.10122000     -4.65618000      5.27366000
  C      3.15947000     -0.10732500      4.85467000
  O      3.92461000     -0.29012300      5.85998000
  C     -2.21813000     -3.25321000      3.89824000
  O     -2.46213000     -4.25870000      4.66098000
  C     -2.38271000      4.09396000     -2.50474000
  O     -2.92261000      4.98712000     -3.25867000
  C      0.43049100      4.68045000      2.76243000
  O      0.41962400      5.75362000      3.43402000
  C     -5.26230000      1.96831000     -1.93056000
  O     -6.35343000      2.30894000     -2.50812000
  C      1.61038000     -5.11732000     -1.86422000
  O      1.50712000     -6.34036000     -2.25356000
  C     -3.07551000      1.35886000     -4.82233000
  O     -3.62146000      1.50793000     -5.96702000
  C      4.97766000      1.17009000      1.92978000
  O      6.16054000      1.47122000      2.37223000
  C     -4.66442000      1.50710000      1.98384000
  O     -5.86886000      1.77625000      2.30373000
  C     -0.13075900     -0.96451600      5.17795000
  O     -0.18252500     -1.38283000      6.43129000
  C      1.10779000      0.10785700     -5.38394000
  O      1.16719000      0.10588600     -6.70344000
  C     -4.39427000     -1.66555000     -3.53890000
  O     -5.46699000     -2.16289000     -4.04339000
  C     -5.48480000     -0.43777500     -0.00110163
  O     -6.64473000     -1.06702000     -0.14901700
  C      4.74102000     -2.41293000      2.91788000
  O      5.92002000     -2.93814000      2.96531000
  C      2.44052000     -4.96747000      0.98057900
  O      3.11462000     -6.00302000      1.33724000
  C      4.49923000      2.78365000     -1.01203000
  O      5.62055000      3.29218000     -1.35545000
  C     -3.58537000      4.07755000      0.31486700
  O     -4.46662000      4.96628000      0.36758700
  C     -2.80548000      0.58016900      4.58692000
  O     -3.55083000      0.63827000      5.69154000
  C      0.09460710      1.93666000      4.79520000
  O      0.12317600      2.38798000      5.97743000
  C     -0.82578600      5.40184000      0.05357560
  O     -0.91109200      6.64865000     -0.08109630
  C      2.94900000      2.89400000      3.51683000
  O      3.59577000      3.50035000      4.43695000
  C      4.35438000     -3.04972000     -1.86949000
  O      5.09862000     -4.13737000     -2.05613000
  C     -0.24503900      3.19120000     -4.31921000
  O     -0.23275900      3.72990000     -5.48226000
  C      5.45328000     -0.55541500     -1.05486000
  O      6.70932000     -0.71139000     -1.14609000
  C      0.65900700     -2.86543000     -5.29617000
  O      1.42300000     -3.82566000     -5.69665000
  C      4.31484000     -1.19402000     -3.45428000
  O      4.99088000     -1.26849000     -4.54307000
  C     -1.06541000     -1.85614000     -5.21138000
  O     -1.64713000     -2.59440000     -6.09970000
  C     -3.41888000     -4.39086000      0.10556700
  O     -4.46929000     -5.10864000      0.31216000
  C     -2.43608000     -4.72913000     -2.26262000
  O     -2.86738000     -5.69797000     -3.00245000
  C      2.70159000      4.17058000      0.72203600
  O      3.39476000      5.23944000      0.90556700
  C     -4.51187000     -1.25055000      2.92778000
  O     -5.40252000     -1.98969000      3.56584000
  C      2.79998000      2.19493000     -3.86009000
  O      3.63221000      2.72333000     -4.72258000
  C     -2.40061000      3.55902000      3.19522000
  O     -3.05765000      4.28118000      4.00774000
  C      1.44468000      4.70429000     -2.02036000
  O      1.85954000      5.72157000     -2.63860000
  C     -0.28356600     -5.91191000      1.37095000
  O     -0.78255000     -7.09185000      1.54873000
