#B3LYP/6-31+G(d) OPT FREQ

246, Energy =   -372.43947812 au

0 1
 Au      0.27166178     -0.98871790     -2.29215829
 Au     -2.39831764      0.23514125      1.83054921
 Au     -2.08911554      0.22969720     -2.78848913
 Au     -0.08187907     -1.01626872      1.65653305
 Au     -0.73653283      1.00173707     -0.42774390
 Au     -1.88874004     -1.34501455     -0.50075320
 Au      2.40117041     -1.23028507      2.61525048
 Au      2.03771531     -1.64300864     -0.01944420
  P      4.77858714     -0.60525294      2.84075204
  C      5.31389310      0.83888134      1.86012594
  C      6.49341749      1.54377202      2.12382239
  C      6.85155384      2.63541324      1.34779637
  C      6.04033495      3.04545063      0.29865005
  C      4.86534974      2.35789186      0.02887814
  C      4.50654275      1.26635776      0.80364611
  H      6.32092582      3.90124596     -0.30444928
  H      7.13163616      1.24516189      2.94726431
  H      3.57954336      0.74326013      0.59244975
  H      4.22235055      2.67634928     -0.78367483
  C      5.88213960     -1.95858720      2.31002685
  C      5.39154815     -3.26293021      2.39338767
  C      6.19436029     -4.34748639      2.07807459
  C      7.50279299     -4.14064689      1.65960223
  C      7.99655720     -2.84556292      1.54748878
  C      7.19535826     -1.76134942      1.87216349
  H      7.59535760     -0.75856320      1.78218280
  H      8.13598789     -4.98544770      1.41624913
  H      9.01214787     -2.67922608      1.20715595
  H      4.36533906     -3.42475817      2.70640083
  H      7.76830263      3.17066588      1.56612728
  C      5.40208544     -0.24590067      4.51648131
  C      5.37200822      1.05357168      5.03354390
  C      5.76423661      1.30174329      6.34074068
  C      6.17727277      0.25643732      7.15622289
  C      6.19330911     -1.03986760      6.65921155
  C      5.80447516     -1.29073680      5.35293834
  H      6.48543405      0.45212472      8.17656897
  H      6.51078506     -1.86129019      7.29159180
  H      5.81644110     -2.30684633      4.97542599
  H      5.79849752     -5.35290867      2.15710781
  H      5.74600809      2.31675762      6.72138200
  H      5.05313033      1.87829585      4.40589119
  P     -3.22208872      1.15287620     -4.66035746
  C     -4.83508040      1.94177609     -4.39391370
  C     -4.98976890      3.33018604     -4.38681907
  C     -6.21592027      3.89756980     -4.07188170
  C     -7.29756523      3.08939789     -3.74871172
  C     -7.14933030      1.70827645     -3.73537375
  C     -5.92654404      1.13744513     -4.04816767
  H     -8.25502224      3.53488119     -3.50576851
  H     -4.15075252      3.96967218     -4.63700564
  H     -5.81296589      0.05851887     -4.02972258
  H     -7.98939247      1.07344195     -3.47821313
  C     -3.49095772     -0.12988233     -5.92002220
  C     -2.56640702     -1.17700695     -5.97252084
  C     -2.68707589     -2.18299522     -6.91681788
  C     -3.74023131     -2.15863485     -7.82219625
  C     -4.66634944     -1.12546465     -7.77812398
  C     -4.54557792     -0.11527718     -6.83542589
  H     -5.27674393      0.68446411     -6.80690819
  H     -3.83928029     -2.94597548     -8.56011610
  H     -5.48936042     -1.10427278     -8.48302661
  H     -1.74572466     -1.20042965     -5.26188018
  H     -6.32564726      4.97585040     -4.08142290
  C     -2.22295245      2.39762244     -5.53380890
  C     -1.01562455      2.81811582     -4.97375533
  C     -0.22561494      3.75586135     -5.62204300
  C     -0.63097185      4.28167951     -6.84100566
  C     -1.82784450      3.86640305     -7.41060649
  C     -2.61936851      2.93090033     -6.76424425
  H     -0.01315413      5.01361127     -7.34787964
  H     -2.14575914      4.27296172     -8.36355431
  H     -3.55076987      2.60828102     -7.21622007
  H     -1.95872769     -2.98601293     -6.94404284
  H      0.70701440      4.07738557     -5.17277796
  H     -0.69284666      2.40319669     -4.02420400
  P      2.03615064     -1.78961687     -3.67596064
  C      1.52240865     -3.14193984     -4.77440460
  C      2.35528557     -3.61736150     -5.79292992
  C      1.92765455     -4.63765400     -6.62694794
  C      0.66493544     -5.19206788     -6.46156522
  C     -0.17182706     -4.72125112     -5.45957118
  C      0.25292182     -3.70142170     -4.62193149
  H      0.33171447     -5.98898858     -7.11586936
  H      3.33844285     -3.18164286     -5.93277459
  H     -0.40601890     -3.33024254     -3.84360230
  H     -1.15804282     -5.15047882     -5.32631587
  C      3.51016772     -2.38734242     -2.80167318
  C      4.19203456     -1.47989511     -1.97812900
  C      5.28203056     -1.89434586     -1.22664093
  C      5.69044961     -3.22042311     -1.27061423
  C      5.00554097     -4.13156735     -2.06149787
  C      3.92029881     -3.72051770     -2.82255970
  H      3.39705212     -4.43871415     -3.44298311
  H      6.54336663     -3.54482936     -0.68697767
  H      5.31837401     -5.16884214     -2.09045350
  H      3.89307513     -0.43773243     -1.96613330
  H      2.58195256     -5.00034155     -7.41099810
  C      2.64443348     -0.53367812     -4.84172017
  C      1.69320533      0.28321260     -5.46010858
  C      2.07991948      1.24035465     -6.38313188
  C      3.42426039      1.40376274     -6.69249543
  C      4.37781103      0.60464688     -6.07679007
  C      3.99356442     -0.36140803     -5.15779945
  H      3.72779401      2.15494255     -7.41202135
  H      5.42775380      0.72940086     -6.31465137
  H      4.74475140     -0.98298432     -4.68454545
  H      5.81010855     -1.17946612     -0.60598177
  H      1.33126169      1.86425299     -6.85776439
  H      0.64276663      0.16410949     -5.21249110
  P      0.24820301      3.15468816     -0.35949124
  C     -1.01760264      4.45312912     -0.36374014
  C     -1.37606348      5.14516705      0.79451918
  C     -2.44410614      6.02974120      0.78010000
  C     -3.16948820      6.23219903     -0.38529559
  C     -2.82619801      5.54296941     -1.54210381
  C     -1.76603130      4.65178222     -1.52957090
  H     -4.00423254      6.92301676     -0.39336050
  H     -0.81598141      4.99142821      1.71025353
  H     -1.51091586      4.10462689     -2.43156177
  H     -3.38843457      5.69745174     -2.45610009
  C      1.33442875      3.54715042     -1.76795185
  C      2.12631503      2.51774052     -2.28283993
  C      3.03134117      2.76323896     -3.30300817
  C      3.14510342      4.04045437     -3.83657649
  C      2.35242782      5.06854013     -3.34316855
  C      1.45656140      4.82747804     -2.31150715
  H      0.84590011      5.63806208     -1.93090697
  H      3.84932844      4.23268308     -4.63740088
  H      2.43720546      6.06656021     -3.75705940
  H      2.02945220      1.51515800     -1.87721062
  H     -2.71158411      6.56014857      1.68685920
  C      1.33336846      3.52253569      1.05548629
  C      1.52923322      2.54213708      2.02663116
  C      2.39154662      2.76099169      3.08833658
  C      3.07109541      3.96576773      3.19627514
  C      2.88267941      4.95157909      2.23623428
  C      2.02347882      4.73304195      1.17131767
  H      3.74756009      4.13567879      4.02573738
  H      3.41133748      5.89437969      2.31530274
  H      1.88943227      5.50444608      0.42133782
  H      3.64854679      1.95715116     -3.68181663
  H      2.53140491      1.98374521      3.82882790
  H      1.00183724      1.59805959      1.94887837
  P      1.29687174     -1.46603857      4.87352616
  C      0.98169150      0.02977138      5.87279948
  C     -0.24153731      0.36755691      6.45513752
  C     -0.39260295      1.57245415      7.12624147
  C      0.67271075      2.45454242      7.23865819
  C      1.90414924      2.11620789      6.69241868
  C      2.05362423      0.91845953      6.01272059
  H      0.54791436      3.39659795      7.75916536
  H     -1.08186950     -0.31387178      6.40407129
  H      3.01945624      0.65311806      5.59727674
  H      2.75004925      2.78684051      6.79179926
  C      2.42187487     -2.45175824      5.91259641
  C      3.05062941     -3.55137027      5.31940165
  C      3.92260205     -4.34686289      6.04457376
  C      4.18871317     -4.04686229      7.37464864
  C      3.57671549     -2.95330864      7.97205779
  C      2.69672598     -2.16083870      7.24994744
  H      2.22212792     -1.31244542      7.72916432
  H      4.87312277     -4.66477023      7.94370387
  H      3.78212582     -2.71560474      9.00959773
  H      2.84823930     -3.77967065      4.27801953
  H     -1.35156744      1.81986084      7.56752170
  C     -0.26759512     -2.41013397      4.92757865
  C     -1.44906028     -1.80163882      4.49090234
  C     -2.63514595     -2.51291758      4.41589052
  C     -2.66221221     -3.85567786      4.76861379
  C     -1.49860521     -4.47400708      5.20419362
  C     -0.31165373     -3.75934810      5.28495867
  H     -3.58717376     -4.41657680      4.70446160
  H     -1.51181917     -5.52078092      5.48510055
  H      0.58415501     -4.25828249      5.63554225
  H      4.39577783     -5.19932254      5.57083550
  H     -3.53777532     -2.01623240      4.07721957
  H     -1.44296521     -0.75520944      4.20968916
  P     -2.35345651     -3.68588028     -0.35806989
  C     -0.76439410     -4.35951850      0.21260532
  C     -0.49496570     -4.49849351      1.57662274
  C      0.78580191     -4.79714877      2.01707942
  C      1.82359370     -4.93989067      1.10680364
  C      1.57140390     -4.79355206     -0.25293426
  C      0.28813488     -4.50667864     -0.69551733
  H      2.82624345     -5.16288859      1.45207411
  H     -1.29351503     -4.37529402      2.29953817
  H      0.10173278     -4.39246964     -1.75780501
  H      2.37468336     -4.91056917     -0.97074158
  C     -2.73084017     -4.58455526     -1.89655698
  C     -3.31943609     -3.86333178     -2.93854607
  C     -3.65029967     -4.48423161     -4.13217488
  C     -3.39311670     -5.83886951     -4.30111573
  C     -2.79911197     -6.56407252     -3.27533510
  C     -2.46769982     -5.94429162     -2.08044563
  H     -1.99971909     -6.51779455     -1.28838823
  H     -3.65774661     -6.32941018     -5.23041942
  H     -2.59278012     -7.61974630     -3.40762118
  H     -3.51731557     -2.80386731     -2.80882512
  H      0.97287120     -4.90895463      3.07903795
  C     -3.56796528     -4.26530944      0.86916609
  C     -4.45631723     -3.33153115      1.40683141
  C     -5.39768162     -3.71201283      2.35066618
  C     -5.46186174     -5.03370017      2.77108115
  C     -4.58334642     -5.97171716      2.24271503
  C     -3.64285197     -5.59393881      1.29752510
  H     -6.19814043     -5.33411942      3.50726911
  H     -4.63192846     -7.00408393      2.56913643
  H     -2.96108845     -6.33321393      0.89255458
  H     -4.10507526     -3.90958025     -4.93122933
  H     -6.08115393     -2.97584154      2.75822709
  H     -4.40404767     -2.29706209      1.08280167
  P     -3.90501901      1.78486438      2.85498341
  C     -5.05604769      2.61402816      1.71714930
  C     -6.35301794      2.99819594      2.06179507
  C     -7.17116049      3.61460094      1.12637006
  C     -6.70689106      3.85408926     -0.15947517
  C     -5.41850616      3.47392124     -0.51307918
  C     -4.60097392      2.85564866      0.41733968
  H     -7.34960132      4.33217877     -0.88964411
  H     -6.72419240      2.80870032      3.06250480
  H     -3.59645441      2.55244135      0.13728344
  H     -5.05200171      3.65564780     -1.51749143
  C     -2.94921870      3.15569618      3.57595662
  C     -1.59649855      2.94678889      3.85353636
  C     -0.81404630      3.96593167      4.37353997
  C     -1.37507172      5.21117257      4.62347394
  C     -2.72030539      5.43071290      4.35469743
  C     -3.50320973      4.41251574      3.83264039
  H     -4.55056618      4.59329869      3.61813820
  H     -0.76436932      6.01047874      5.02664746
  H     -3.16195254      6.40028108      4.55329505
  H     -1.15518202      1.97527580      3.65617964
  H     -8.17681808      3.90814704      1.40401327
  C     -4.92050330      1.14488207      4.21635832
  C     -5.82751611      0.12091967      3.91894265
  C     -6.55527261     -0.48860665      4.92709008
  C     -6.37625397     -0.09608578      6.24789743
  C     -5.46869449      0.90783694      6.55450376
  C     -4.74059229      1.52413881      5.54744392
  H     -6.94243982     -0.57608841      7.03739371
  H     -5.32415103      1.21363912      7.58421796
  H     -4.03069030      2.30481134      5.79644618
  H      0.23498450      3.78702019      4.58192847
  H     -7.26036031     -1.27500036      4.68301336
  H     -5.96021110     -0.19282872      2.88830943

