#B3LYP/6-31+G(d) OPT FREQ

246, Energy =   -372.46312044 au

0 1
 Au      0.29685191     -2.73863060     -2.27259305
 Au     -1.91380909     -1.27404940     -2.28336487
 Au      0.21534127     -0.42729980     -0.97154022
 Au      2.58318570      0.52960862      0.14952004
 Au     -1.88416707      1.70234605     -1.55067654
 Au     -2.63748542      1.63905498      0.89053431
 Au      0.18320130      1.85212884      0.54777578
 Au      0.71881280     -0.60414550      1.75046313
  P      0.28740419     -2.42573838      3.20238695
  C     -0.01255695     -2.07987281      4.96050615
  C      0.20219072     -3.01710015      5.97481001
  C     -0.05519342     -2.68573550      7.29597021
  C     -0.51985471     -1.41877703      7.62369033
  C     -0.72869417     -0.47841106      6.62406138
  C     -0.47867681     -0.80892600      5.30233078
  H     -0.71376245     -1.16302302      8.65865281
  H      0.58006224     -4.00344975      5.73104890
  H     -0.64342943     -0.07568444      4.52021931
  H     -1.08394213      0.51532844      6.87188474
  C      1.61880472     -3.66162695      3.19705531
  C      1.55099129     -4.82686115      2.43018242
  C      2.62915861     -5.69773893      2.38136992
  C      3.79225208     -5.41211994      3.08197921
  C      3.87644415     -4.24809428      3.83556981
  C      2.80056481     -3.37670164      3.88966781
  H      2.87130220     -2.46726703      4.47702490
  H      4.63443996     -6.09245160      3.03774623
  H      4.78453454     -4.01527019      4.37982280
  H      0.65043550     -5.05703853      1.87188256
  H      0.11339843     -3.42029046      8.07478632
  C     -1.17266283     -3.35827525      2.64389422
  C     -1.83126476     -2.94564482      1.48588919
  C     -2.93778159     -3.63279863      1.01471214
  C     -3.40756116     -4.74559029      1.69873357
  C     -2.76280568     -5.16572826      2.85672697
  C     -1.65436404     -4.47876853      3.32733521
  H     -4.27574056     -5.28065800      1.33181302
  H     -3.12606527     -6.03267015      3.39596332
  H     -1.16074480     -4.81279913      4.23276485
  H      2.55926522     -6.60118299      1.78629076
  H     -3.43150192     -3.29611417      0.11151123
  H     -1.47226229     -2.07516756      0.94858263
  P     -1.07726968      2.05508307     -3.79637029
  C     -0.40172848      3.72067525     -4.09656802
  C      0.52299798      3.99319749     -5.10790372
  C      0.92869176      5.29592623     -5.35121572
  C      0.41590302      6.34120670     -4.59406997
  C     -0.49437143      6.07959965     -3.57903361
  C     -0.89869697      4.77752280     -3.33165797
  H      0.72784035      7.35954232     -4.79395923
  H      0.92366237      3.18404100     -5.70803143
  H     -1.61214048      4.57212894     -2.54035831
  H     -0.88989481      6.89080678     -2.97871778
  C     -2.26985283      1.90419728     -5.16278854
  C     -3.62586281      2.01465571     -4.84771148
  C     -4.58786848      1.99208190     -5.84509672
  C     -4.20585519      1.84988103     -7.17180876
  C     -2.86009881      1.73646908     -7.49706099
  C     -1.89516489      1.77070101     -6.50259613
  H     -0.84653479      1.69930221     -6.76849191
  H     -4.95634865      1.82876079     -7.95313350
  H     -2.55937262      1.62906046     -8.53273786
  H     -3.92156363      2.12314927     -3.80932494
  H      1.64376051      5.49669881     -6.14057637
  C      0.30408377      0.94480824     -4.20374898
  C      1.55242085      1.20329364     -3.62716247
  C      2.59730414      0.30388757     -3.76255426
  C      2.40810164     -0.88112103     -4.46216226
  C      1.17128969     -1.15678125     -5.03044267
  C      0.12623494     -0.25124021     -4.90035609
  H      3.22458547     -1.58548510     -4.56784624
  H      1.02055803     -2.07552940     -5.58479668
  H     -0.83566120     -0.47945257     -5.34423024
  H     -5.63656820      2.08406433     -5.58669354
  H      3.56174713      0.52848002     -3.32124358
  H      1.70381735      2.12380804     -3.07472376
  P     -4.25167606     -1.48183113     -2.65788902
  C     -5.22977565     -0.27234793     -1.71737528
  C     -5.93164402      0.77392955     -2.31707113
  C     -6.55346210      1.74273813     -1.54195457
  C     -6.48846650      1.67903302     -0.15809787
  C     -5.79544962      0.64038990      0.45224509
  C     -5.15987846     -0.31903129     -0.32014647
  H     -6.97567780      2.43501700      0.44649165
  H     -6.00152471      0.82766008     -3.39711978
  H     -4.61242912     -1.12151825      0.16273069
  H     -5.75683185      0.57286529      1.53321315
  C     -4.85238864     -3.09883236     -2.06981603
  C     -4.03055484     -4.20991455     -2.28402934
  C     -4.42488489     -5.47206580     -1.87063543
  C     -5.64683766     -5.64186867     -1.23202122
  C     -6.47243604     -4.54653148     -1.01731620
  C     -6.08219905     -3.28274826     -1.43463275
  H     -6.73481873     -2.43499357     -1.26078841
  H     -5.95625353     -6.62773672     -0.90559845
  H     -7.42829913     -4.67556986     -0.52299133
  H     -3.07239437     -4.07768456     -2.77597758
  H     -7.09409821      2.54870789     -2.02449393
  C     -4.87373949     -1.43353663     -4.36420400
  C     -3.95214726     -1.36306734     -5.40959457
  C     -4.37861337     -1.37532185     -6.72850513
  C     -5.73377435     -1.45435628     -7.01733895
  C     -6.65999588     -1.52975287     -5.98464400
  C     -6.23630511     -1.52686708     -4.66558873
  H     -6.06925360     -1.46156612     -8.04768710
  H     -7.71826341     -1.59769375     -6.20825280
  H     -6.96307738     -1.60361215     -3.86443534
  H     -3.77596721     -6.32313603     -2.04312927
  H     -3.65144429     -1.31976160     -7.53029126
  H     -2.89347593     -1.29656266     -5.18160801
  P      4.94990733      0.74221845      0.09111927
  C      5.52928089      2.46312136      0.14787999
  C      5.78034153      3.10565370      1.36211017
  C      6.10076889      4.45395499      1.38961075
  C      6.16865194      5.18058062      0.20921749
  C      5.91608784      4.55261409     -1.00315594
  C      5.58990972      3.20618590     -1.03540860
  H      6.41839594      6.23468430      0.23323120
  H      5.72692314      2.54746455      2.29010791
  H      5.38463391      2.72310255     -1.98484717
  H      5.96868008      5.11492782     -1.92819907
  C      5.85436297     -0.02756012     -1.28210277
  C      5.24212024     -1.08872645     -1.95405600
  C      5.89942270     -1.74566390     -2.98192425
  C      7.17261526     -1.34304217     -3.36136576
  C      7.78580267     -0.28209194     -2.70856498
  C      7.13525790      0.37243812     -1.67385101
  H      7.62042438      1.20133916     -1.17126021
  H      7.68586647     -1.85444534     -4.16710816
  H      8.77832775      0.03704921     -3.00440611
  H      4.24628825     -1.40257163     -1.65884928
  H      6.29614056      4.93858442      2.33928957
  C      5.64480710     -0.02101059      1.59113220
  C      4.84058557     -0.07030607      2.73341884
  C      5.30393303     -0.64871174      3.90425524
  C      6.57601807     -1.20350865      3.94583205
  C      7.38133646     -1.16937585      2.81532108
  C      6.92297331     -0.58052934      1.64612075
  H      6.93818788     -1.66336836      4.85770989
  H      8.37448326     -1.60228873      2.84325701
  H      7.56163275     -0.55910289      0.77053515
  H      5.41648310     -2.57533255     -3.48580899
  H      4.66923383     -0.66936052      4.78294641
  H      3.83991541      0.34742377      2.69732563
  P      0.77878413      4.13701077      1.10521763
  C     -0.57597965      5.22844304      1.63390557
  C     -0.67664793      5.77343931      2.91435826
  C     -1.79140423      6.51596040      3.27527147
  C     -2.81778210      6.72576102      2.36587745
  C     -2.73038228      6.18524144      1.08817438
  C     -1.62338377      5.43453340      0.72899555
  H     -3.68652446      7.30757569      2.65021031
  H      0.11795475      5.61570705      3.63432908
  H     -1.56222329      5.00468199     -0.26567021
  H     -3.52507522      6.35115800      0.36996407
  C      1.52133670      5.01654154     -0.30791123
  C      2.25546364      4.27085115     -1.23189285
  C      2.87911867      4.88543512     -2.30521188
  C      2.78964475      6.26206861     -2.46184957
  C      2.05927768      7.01483965     -1.55220374
  C      1.42159389      6.39858347     -0.48637263
  H      0.84066745      6.99372961      0.20873018
  H      3.28258664      6.74592693     -3.29661498
  H      1.98162276      8.08881222     -1.67493467
  H      2.33962264      3.19649061     -1.10175321
  H     -1.85651074      6.93087481      4.27449645
  C      2.07547720      4.31597265      2.37658127
  C      2.53159154      3.18143251      3.04863587
  C      3.52483112      3.27635384      4.01254878
  C      4.07828661      4.51252134      4.31649805
  C      3.64071280      5.64841901      3.64713705
  C      2.64990563      5.55329621      2.68281808
  H      4.85138259      4.59061786      5.07164246
  H      4.07409897      6.61465411      3.87743742
  H      2.32201333      6.44515464      2.16084304
  H      3.43427976      4.28976897     -3.02066064
  H      3.86371932      2.38430966      4.52685844
  H      2.10210608      2.21361674      2.81311559
  P     -3.39550967      1.85235770      3.15458203
  C     -4.98873413      2.72898462      3.19697343
  C     -6.09001779      2.33428498      3.95880820
  C     -7.27900797      3.04583126      3.89183611
  C     -7.38605746      4.15559887      3.06562125
  C     -6.29876333      4.55350768      2.29737875
  C     -5.11242242      3.84137036      2.35836606
  H     -8.31672463      4.70831880      3.01580876
  H     -6.02038809      1.46750148      4.60576985
  H     -4.26601979      4.14466934      1.75051789
  H     -6.37687502      5.41673337      1.64643761
  C     -2.34777675      2.82962461      4.28597797
  C     -0.96741025      2.62114641      4.25570178
  C     -0.13383918      3.26556020      5.15605711
  C     -0.66578597      4.15301743      6.08284128
  C     -2.03236969      4.39461798      6.10005863
  C     -2.86978164      3.73392598      5.21324952
  H     -3.93646399      3.92403841      5.23988583
  H     -0.01379290      4.65889469      6.78505483
  H     -2.45186025      5.09419956      6.81361284
  H     -0.54414138      1.94717269      3.51652523
  H     -8.12643818      2.72921066      4.48874310
  C     -3.68755216      0.34155618      4.13176441
  C     -3.82023298     -0.87534300      3.46133623
  C     -4.08382108     -2.04195223      4.16229328
  C     -4.19509905     -2.01367521      5.54509818
  C     -4.04971011     -0.81193376      6.22503821
  C     -3.80268472      0.35867876      5.52519360
  H     -4.39404645     -2.92758310      6.09242864
  H     -4.13227196     -0.78442419      7.30533744
  H     -3.69315300      1.29287689      6.06447876
  H      0.93340998      3.07846800      5.13260301
  H     -4.20304401     -2.97676740      3.62759604
  H     -3.71360912     -0.90597947      2.38202792
  P      1.69047389     -4.66666682     -2.20507430
  C      3.17595220     -4.26812184     -1.22239891
  C      4.44195283     -4.81129360     -1.44548843
  C      5.51113332     -4.46036119     -0.63302633
  C      5.33322935     -3.56816281      0.41473235
  C      4.07664590     -3.02607757      0.65070953
  C      3.01029228     -3.37374476     -0.16160771
  H      6.16980074     -3.29227568      1.04626034
  H      4.59588077     -5.51112579     -2.25859854
  H      2.02968480     -2.95195971      0.03124925
  H      3.92419385     -2.33420573      1.47144395
  C      2.31245791     -5.50497398     -3.69089318
  C      1.80674684     -6.73445521     -4.12000648
  C      2.24768598     -7.29815412     -5.30779099
  C      3.18772904     -6.64023295     -6.08824075
  C      3.68302358     -5.40787151     -5.68180927
  C      3.24337191     -4.84049637     -4.49725879
  H      3.62607137     -3.87291190     -4.18841254
  H      3.53187744     -7.08438330     -7.01473650
  H      4.41210684     -4.88553344     -6.29045774
  H      1.06828058     -7.25471808     -3.52094641
  H      6.48898063     -4.88836494     -0.82067770
  C      0.94353389     -5.97723317     -1.18720288
  C     -0.35662584     -5.80951080     -0.70958324
  C     -0.94276473     -6.77328124      0.09724846
  C     -0.23440695     -7.91590938      0.44093905
  C      1.06263747     -8.09271064     -0.02522487
  C      1.65016564     -7.13074595     -0.83184932
  H     -0.69205065     -8.66926872      1.07120704
  H      1.61711753     -8.98586726      0.23734196
  H      2.66404772     -7.27227922     -1.18951456
  H      1.85252350     -8.25619825     -5.62451110
  H     -1.95465274     -6.62903590      0.45839104
  H     -0.91175540     -4.91535462     -0.97349854

