#B3LYP/6-31+G(d) OPT FREQ

246, Energy =   -372.45332123 au

0 1
 Au      1.43606174     -0.38884990      1.80544292
 Au      2.47223064      1.62976881      0.25888548
 Au     -0.63106834     -2.43341622      0.89314488
 Au     -2.12679529     -0.78154472     -0.90836993
 Au     -1.30763342      1.44431170     -2.40482679
 Au      0.28015925      0.33094937     -0.39407597
 Au     -0.05908270     -0.84563423     -2.89246033
 Au     -1.56649423     -0.28368525      1.96214876
  P     -4.31654942     -1.66328129     -1.34620993
  C     -5.67180021     -0.55611166     -0.84848491
  C     -6.90409980     -1.00090638     -0.36571436
  C     -7.91023044     -0.09100622     -0.07739900
  C     -7.70513553      1.26753211     -0.27602069
  C     -6.47901151      1.72099789     -0.74598982
  C     -5.46781719      0.81540748     -1.02081267
  H     -8.49902376      1.97359491     -0.06287837
  H     -7.07622856     -2.06042068     -0.21465351
  H     -4.50788647      1.17093418     -1.38247323
  H     -6.31049289      2.78035422     -0.90406407
  C     -4.60619523     -3.23259012     -0.48303061
  C     -4.54137877     -4.46470657     -1.13764239
  C     -4.61654936     -5.64695160     -0.41673143
  C     -4.75028793     -5.61562378      0.96403872
  C     -4.79739297     -4.39628545      1.62777698
  C     -4.71742924     -3.21335323      0.91185478
  H     -4.74241254     -2.26258499      1.43461940
  H     -4.80943620     -6.54085987      1.52509287
  H     -4.89137859     -4.36755791      2.70731123
  H     -4.43470207     -4.49901030     -2.21598612
  H     -8.86320174     -0.44666569      0.29678418
  C     -4.71954377     -1.99118069     -3.09367452
  C     -3.77687259     -1.70609606     -4.08202238
  C     -4.07185775     -1.90239505     -5.42305731
  C     -5.31844426     -2.38765360     -5.79292610
  C     -6.26587026     -2.67534804     -4.81848349
  C     -5.97266561     -2.47714251     -3.47892631
  H     -5.55280572     -2.54047183     -6.83975194
  H     -7.24044120     -3.05347392     -5.10441758
  H     -6.72055268     -2.69646285     -2.72502616
  H     -4.56825586     -6.59684407     -0.93664007
  H     -3.32724512     -1.67329556     -6.17696917
  H     -2.80335820     -1.32089486     -3.79735336
  P     -2.39243154      3.47978167     -2.96308121
  C     -2.57270177      4.67576332     -1.60310205
  C     -2.60894763      6.05864276     -1.80018188
  C     -2.73578252      6.91866595     -0.71945246
  C     -2.83051428      6.41079771      0.56887755
  C     -2.79526655      5.03837376      0.77483390
  C     -2.65981821      4.17678428     -0.30114748
  H     -2.92833012      7.08281161      1.41346341
  H     -2.53316536      6.46409583     -2.80266182
  H     -2.61734510      3.10444239     -0.13571869
  H     -2.86864625      4.63957979      1.77950764
  C     -4.09409504      3.16516202     -3.52152831
  C     -4.34359361      1.95544705     -4.17661681
  C     -5.62031221      1.63242609     -4.60586014
  C     -6.66972418      2.51364754     -4.38148608
  C     -6.43560907      3.71656017     -3.72884454
  C     -5.15764273      4.04273118     -3.29843875
  H     -4.98648160      4.98049585     -2.78214204
  H     -7.67042874      2.26099612     -4.71155637
  H     -7.25288227      4.40594484     -3.55144200
  H     -3.52586764      1.26141122     -4.34383368
  H     -2.76259237      7.98928829     -0.88595685
  C     -1.61275800      4.43714403     -4.29575612
  C     -0.21992571      4.38087051     -4.39994453
  C      0.44395165      5.11263213     -5.37115148
  C     -0.27703652      5.90212670     -6.25748510
  C     -1.66179321      5.95294335     -6.17249384
  C     -2.32954470      5.22591572     -5.19853091
  H      0.24095526      6.47326780     -7.01891578
  H     -2.22675989      6.56242595     -6.86816791
  H     -3.41153809      5.26553041     -5.14180356
  H     -5.79643075      0.68918749     -5.11063001
  H      1.52472923      5.06319750     -5.43885337
  H      0.34179118      3.75245520     -3.71540982
  P      1.78444502     -1.81570493     -4.07321415
  C      3.20046617     -0.87754164     -3.40404682
  C      4.41151374     -1.43977620     -2.99909978
  C      5.40028838     -0.65163807     -2.42759778
  C      5.20167468      0.71033150     -2.26078241
  C      4.00886181      1.28864422     -2.67889427
  C      3.01805786      0.49999604     -3.24069478
  H      5.97550368      1.32257857     -1.81322297
  H      4.59242024     -2.49992121     -3.12992387
  H      2.08904010      0.95703004     -3.56443995
  H      3.85634164      2.35705933     -2.57815093
  C      1.75412450     -1.31972015     -5.81973131
  C      0.52530965     -1.04512822     -6.42282900
  C      0.46388012     -0.65596166     -7.75185920
  C      1.63137513     -0.53323347     -8.49244461
  C      2.85998313     -0.79961635     -7.90135996
  C      2.92482372     -1.19053869     -6.57386892
  H      3.88599164     -1.39384155     -6.11462980
  H      1.58502944     -0.22738530     -9.53101561
  H      3.77274937     -0.70176205     -8.47752794
  H     -0.38660429     -1.13820251     -5.84125905
  H      6.33326756     -1.10713799     -2.11585437
  C      2.36508460     -3.54204629     -4.09085765
  C      2.77062188     -4.12964716     -2.88802290
  C      3.27178188     -5.42155456     -2.86796764
  C      3.34151581     -6.15907198     -4.04294894
  C      2.89696967     -5.60199234     -5.23399554
  C      2.41395384     -4.30214373     -5.26107071
  H      3.73680702     -7.16779672     -4.02780627
  H      2.93593797     -6.17776006     -6.15132550
  H      2.08405193     -3.87268121     -6.19984989
  H     -0.49663908     -0.44650604     -8.20854370
  H      3.60971133     -5.85310726     -1.93272128
  H      2.69779679     -3.56607009     -1.96396956
  P     -0.04606750     -4.64102502      0.21648406
  C      1.69129482     -5.09980774      0.51525847
  C      2.12107386     -6.41189776      0.72409399
  C      3.46501084     -6.68390356      0.93313235
  C      4.39499161     -5.65274372      0.94285304
  C      3.97613916     -4.34192253      0.75687554
  C      2.63373212     -4.06852562      0.54913612
  H      5.44402276     -5.86853932      1.10723063
  H      1.40119599     -7.22235132      0.73517310
  H      2.30509638     -3.04154264      0.42218668
  H      4.69494636     -3.53069886      0.78006051
  C     -0.34159962     -5.03799831     -1.53868431
  C     -1.23885276     -4.23568153     -2.24648958
  C     -1.52042735     -4.48403379     -3.58022437
  C     -0.91275368     -5.55027266     -4.22875050
  C     -0.02326872     -6.35999808     -3.53656766
  C      0.26705541     -6.10428114     -2.20466579
  H      0.98282808     -6.73032652     -1.68484008
  H     -1.13084359     -5.74782379     -5.27160230
  H      0.45662148     -7.19234341     -4.03806750
  H     -1.72660317     -3.40911914     -1.74137577
  H      3.78668117     -7.70639863      1.09286126
  C     -0.99826095     -5.89792430      1.12350665
  C     -1.42353508     -5.56481769      2.41269771
  C     -2.13231074     -6.47277913      3.18254021
  C     -2.43740036     -7.72682829      2.66893612
  C     -2.03870408     -8.06193018      1.38190166
  C     -1.32568825     -7.15536484      0.61166302
  H     -2.99131089     -8.43919124      3.26874149
  H     -2.28452525     -9.03512243      0.97310669
  H     -1.03158408     -7.42558032     -0.39595830
  H     -2.21705718     -3.84545456     -4.11151868
  H     -2.45216646     -6.19952462      4.18143941
  H     -1.20186986     -4.57839670      2.80679572
  P      3.85867605      3.55727825      0.55384519
  C      2.75238352      4.96940722      0.23057817
  C      2.76508716      6.15373866      0.97025378
  C      1.84970949      7.16046554      0.70035139
  C      0.91599523      7.00407150     -0.31491599
  C      0.89926174      5.83486314     -1.06295403
  C      1.80431685      4.82347319     -0.78650139
  H      0.19854751      7.78985318     -0.52141757
  H      3.48958447      6.28778595      1.76539670
  H      1.77604160      3.90277552     -1.36040446
  H      0.17324704      5.70671260     -1.85817456
  C      5.32349537      3.89498090     -0.47177462
  C      6.52676718      3.25254926     -0.15823794
  C      7.64425988      3.42137832     -0.96068739
  C      7.57269690      4.22059894     -2.09474147
  C      6.37977557      4.84931336     -2.42266142
  C      5.25991994      4.68616070     -1.62078811
  H      4.33414583      5.18619194     -1.88264551
  H      8.44662080      4.35187852     -2.72170694
  H      6.31898741      5.47326732     -3.30691970
  H      6.58584473      2.62670849      0.72627135
  H      1.86680838      8.07196529      1.28661479
  C      4.44494085      3.82004417      2.25482704
  C      3.83142541      3.09722539      3.27995363
  C      4.21791078      3.27006750      4.59933470
  C      5.23421168      4.16196783      4.91273826
  C      5.85944490      4.87996441      3.90200315
  C      5.46881014      4.71418252      2.58229237
  H      5.54132576      4.29451484      5.94347482
  H      6.65581191      5.57476522      4.14210503
  H      5.96585665      5.27595966      1.79975362
  H      8.57304663      2.92729839     -0.69987006
  H      3.72751994      2.70332722      5.38279138
  H      3.04893669      2.38662602      3.03438072
  P      2.70928197     -1.11366499      3.66101750
  C      4.40878145     -0.56020956      3.30799792
  C      5.24425257      0.04102426      4.25070784
  C      6.49135554      0.52288427      3.87970561
  C      6.92423342      0.40999751      2.56616665
  C      6.10501005     -0.19265007      1.61949766
  C      4.85790763     -0.66859230      1.98788822
  H      7.89812591      0.78913474      2.27970890
  H      4.91699009      0.14065050      5.27917413
  H      4.21638009     -1.12698846      1.24301958
  H      6.43461425     -0.28649729      0.59089831
  C      2.85573613     -2.89954879      3.97590235
  C      1.68397608     -3.66153459      3.96622519
  C      1.73267704     -5.03252821      4.15693338
  C      2.95481120     -5.66285110      4.35212992
  C      4.12469913     -4.91628777      4.36078906
  C      4.07905393     -3.54285684      4.17316654
  H      4.99764312     -2.96744289      4.17485834
  H      2.99458391     -6.73661655      4.49249344
  H      5.08020427     -5.40538646      4.51067395
  H      0.72888533     -3.17134584      3.80241996
  H      7.12549036      0.99395674      4.62181318
  C      2.34162506     -0.36798707      5.27696850
  C      1.66966041      0.85644044      5.29337092
  C      1.42905546      1.51494751      6.48861473
  C      1.84080305      0.94640612      7.68701495
  C      2.48536386     -0.28330356      7.68488694
  C      2.73801838     -0.93845301      6.48901691
  H      1.65142769      1.45862175      8.62295271
  H      2.79805911     -0.73362087      8.61976759
  H      3.24526398     -1.89660206      6.49447978
  H      0.81669486     -5.61243810      4.14472930
  H      0.91052460      2.46688142      6.48460248
  H      1.33270711      1.29232964      4.35892852
  P     -2.31452341      1.28455654      3.61356059
  C     -1.87570996      0.64694433      5.26199493
  C     -1.97139985      1.41766330      6.42516573
  C     -1.63505561      0.87681360      7.65606572
  C     -1.18745406     -0.43521193      7.74573933
  C     -1.07735361     -1.20697674      6.59791998
  C     -1.42178222     -0.66898492      5.36793209
  H     -0.91994058     -0.85264765      8.70923280
  H     -2.30799467      2.44644367      6.36628781
  H     -1.33721706     -1.27630785      4.47307376
  H     -0.72176612     -2.22927845      6.65837575
  C     -4.09376824      1.65260680      3.72026127
  C     -4.69650116      2.24120621      2.60320386
  C     -6.05112158      2.52653044      2.60190950
  C     -6.83222219      2.20168378      3.70357012
  C     -6.25057137      1.59021332      4.80461178
  C     -4.89072784      1.31622578      4.81560001
  H     -4.44837219      0.84032923      5.68296029
  H     -7.89339791      2.42107369      3.69991040
  H     -6.85667750      1.32632120      5.66348852
  H     -4.09459559      2.47571907      1.73109991
  H     -1.71917763      1.48378945      8.54998000
  C     -1.53043296      2.93165937      3.58926294
  C     -0.28900533      3.06024357      2.96409006
  C      0.37552832      4.27510498      2.94696646
  C     -0.19522015      5.38699374      3.55022209
  C     -1.43553761      5.27725089      4.16450074
  C     -2.10235816      4.06044251      4.18296191
  H      0.32368186      6.33839282      3.53454410
  H     -1.88941077      6.14369922      4.63131224
  H     -3.07581227      3.98914405      4.65434953
  H     -6.50030265      2.99907057      1.73625370
  H      1.33945971      4.35439775      2.45801683
  H      0.15524184      2.19822326      2.47814785

