246
Energy =   -372.44877978 au
 Au      1.74740007     -0.76666166      1.08552584
 Au      0.18376576      0.73827855     -1.18192643
 Au      2.43419917     -3.44239993      1.00781564
 Au      0.69818182     -2.25755241     -0.93911979
 Au     -0.45567380      1.20124424      1.29668773
 Au     -0.06606566     -3.07121934      1.64113231
 Au     -2.28790559      1.66954420     -0.60351046
 Au      2.37999644      1.67790047      0.62268279
  P     -2.27480831     -3.45708057      2.51058050
  C     -2.25268827     -3.67354643      4.31788528
  C     -3.41780957     -3.87290589      5.06469836
  C     -3.35174875     -4.01744794      6.44154833
  C     -2.12587311     -3.96097822      7.09381810
  C     -0.96272091     -3.76529050      6.36277917
  C     -1.02767891     -3.62507445      4.98519707
  H     -2.07894066     -4.07150245      8.17068984
  H     -4.38008631     -3.91433656      4.56724158
  H     -0.11715979     -3.48135563      4.41357351
  H     -0.00252705     -3.72284781      6.86377469
  C     -3.03997508     -4.98824004      1.89439394
  C     -3.74567137     -4.97665436      0.68686433
  C     -4.31782554     -6.13912754      0.19519086
  C     -4.16781478     -7.33562738      0.88487894
  C     -3.43685290     -7.36495310      2.06469236
  C     -2.87606554     -6.20103777      2.56760289
  H     -2.31744640     -6.23047520      3.49635820
  H     -4.62018128     -8.24319645      0.50307236
  H     -3.30935577     -8.29756293      2.60189447
  H     -3.85807859     -4.04812208      0.13739554
  H     -4.26165500     -4.17598591      7.00855772
  C     -3.58789580     -2.21604436      2.25308677
  C     -3.20608178     -0.88802463      2.06873792
  C     -4.15363731      0.10591831      1.88510472
  C     -5.50402838     -0.21344979      1.88106539
  C     -5.89862325     -1.53174380      2.06348794
  C     -4.95107486     -2.52651732      2.24890711
  H     -6.24574497      0.56329176      1.73665014
  H     -6.95170381     -1.78801269      2.06199356
  H     -5.27551349     -3.55159460      2.38348936
  H     -4.88410634     -6.10932237     -0.72878251
  H     -3.83690437      1.13384955      1.75405525
  H     -2.15177229     -0.63427773      2.07194161
  P     -4.20722247      2.88463371     -1.30986877
  C     -5.88568902      2.23023205     -1.06877871
  C     -6.69793307      2.63376257     -0.00728836
  C     -7.93678596      2.04087834      0.19204001
  C     -8.37599008      1.03641516     -0.65964790
  C     -7.57125547      0.62182604     -1.71336466
  C     -6.33163561      1.20742786     -1.91284386
  H     -9.34529806      0.57761490     -0.50435191
  H     -6.36371942      3.42083931      0.65925736
  H     -5.70400412      0.87983282     -2.73564249
  H     -7.91301325     -0.15868278     -2.38371753
  C     -4.15791911      3.38521106     -3.05631319
  C     -2.91148514      3.40273888     -3.68612950
  C     -2.78816596      3.79987135     -5.00735350
  C     -3.91662703      4.17450545     -5.72424412
  C     -5.16352060      4.15000882     -5.11384965
  C     -5.28727889      3.76052952     -3.78873587
  H     -6.26560373      3.74084097     -3.32237237
  H     -3.82481813      4.48100629     -6.75959008
  H     -6.04647727      4.43782214     -5.67258360
  H     -2.03352259      3.08978985     -3.13047442
  H     -8.56311240      2.37022820      1.01300239
  C     -4.17790080      4.45739391     -0.39241463
  C     -3.57981337      4.46473618      0.87118130
  C     -3.47695784      5.63690576      1.60220709
  C     -3.96998838      6.82443480      1.07737491
  C     -4.56737904      6.83111364     -0.17673968
  C     -4.67141657      5.65798327     -0.90858118
  H     -3.88613115      7.74465359      1.64354220
  H     -4.95310411      7.75643639     -0.58924809
  H     -5.13210780      5.67597613     -1.89001117
  H     -1.81207217      3.80799672     -5.47938311
  H     -3.00277385      5.62376763      2.57756090
  H     -3.18446415      3.53974441      1.27848440
  P     -0.52641530      1.62045101      3.64754243
  C     -0.36274257      3.36599446      4.12191792
  C     -0.46066272      3.78748906      5.45237468
  C     -0.34200398      5.13051033      5.77193640
  C     -0.13665281      6.07126516      4.77091420
  C     -0.05364446      5.66557287      3.44647735
  C     -0.16417893      4.32156205      3.12404739
  H     -0.04721690      7.12140388      5.02287939
  H     -0.63853394      3.05930171      6.23586583
  H     -0.10092231      4.00518986      2.08798830
  H      0.09873372      6.39659177      2.66095724
  C      0.86005940      0.75676564      4.45244733
  C      0.99891395     -0.61151913      4.19596210
  C      2.08479721     -1.32258509      4.67982724
  C      3.06405682     -0.67274558      5.42044715
  C      2.94321413      0.68576882      5.67550202
  C      1.85015006      1.39586638      5.19754275
  H      1.77013118      2.45569614      5.40849794
  H      3.91698183     -1.22490508      5.79713614
  H      3.70445945      1.19982584      6.25081277
  H      0.24121632     -1.12353953      3.61284214
  H     -0.41456412      5.44495476      6.80652467
  C     -2.01665675      1.11024803      4.56285360
  C     -3.16649723      1.88921889      4.38802302
  C     -4.36513599      1.52238508      4.97663506
  C     -4.43648096      0.36731929      5.74469383
  C     -3.30246754     -0.41108001      5.92484601
  C     -2.10010145     -0.04820954      5.33557529
  H     -5.37377659      0.07678354      6.20425360
  H     -3.35195361     -1.30961783      6.52906271
  H     -1.22392875     -0.66780550      5.48884891
  H      2.16806038     -2.38369354      4.47337204
  H     -5.24550243      2.13827775      4.83360264
  H     -3.11484962      2.79318030      3.78963276
  P      0.95157119      0.69407972     -3.44496633
  C      2.07088022     -0.66298800     -3.92565744
  C      2.06861378     -1.26693442     -5.18323652
  C      2.94015897     -2.30925082     -5.46360009
  C      3.81311502     -2.77522681     -4.49060223
  C      3.82856745     -2.17868132     -3.23759772
  C      2.97062132     -1.12656459     -2.96034410
  H      4.48201427     -3.60015900     -4.70698997
  H      1.37861087     -0.92687993     -5.94670459
  H      3.00779799     -0.64613501     -1.98888710
  H      4.50937316     -2.53319093     -2.47258715
  C      1.81706794      2.19457444     -4.00321966
  C      1.15581963      3.41578933     -3.83874315
  C      1.75432516      4.60256194     -4.22506959
  C      3.02442014      4.58576259     -4.78707040
  C      3.69209268      3.38037884     -4.94972548
  C      3.09897280      2.19049867     -4.55363899
  H      3.63248872      1.25562043     -4.68052138
  H      3.49435827      5.51256750     -5.09403959
  H      4.68389230      3.36402503     -5.38633932
  H      0.15953861      3.42814533     -3.41094051
  H      2.92917051     -2.76590384     -6.44634437
  C     -0.45784313      0.62469053     -4.59750836
  C     -1.69225592      0.18375263     -4.11522203
  C     -2.80995093      0.15382186     -4.93558362
  C     -2.70737435      0.56380638     -6.25784436
  C     -1.48709638      1.00858554     -6.75006801
  C     -0.37092625      1.04535891     -5.92788463
  H     -3.57889724      0.54652998     -6.90146223
  H     -1.40526221      1.33712145     -7.77958385
  H      0.57063630      1.41638706     -6.31647172
  H      1.22867163      5.54064739     -4.08869903
  H     -3.76037726     -0.18393098     -4.53750750
  H     -1.77784815     -0.13217016     -3.08172158
  P     -0.56806283     -3.51126637     -2.52962270
  C     -2.31744849     -3.01760414     -2.47857461
  C     -3.27020474     -3.49230960     -3.38596878
  C     -4.59156165     -3.08106306     -3.29768672
  C     -4.98283699     -2.18554153     -2.31166507
  C     -4.04702546     -1.70264471     -1.40727314
  C     -2.72803400     -2.12094707     -1.48894737
  H     -6.01570997     -1.86472193     -2.24632335
  H     -2.97639375     -4.18171449     -4.16895295
  H     -2.00326588     -1.74544639     -0.77511891
  H     -4.34202066     -0.99682944     -0.63940238
  C     -0.53258047     -5.20982406     -1.87200288
  C      0.68575674     -5.69375038     -1.38628538
  C      0.79018852     -6.97806435     -0.87782604
  C     -0.32628097     -7.80247402     -0.84784980
  C     -1.54041399     -7.33495200     -1.33010825
  C     -1.64662982     -6.04877592     -1.83767490
  H     -2.60377341     -5.69602222     -2.20358008
  H     -0.25030460     -8.80684125     -0.44857410
  H     -2.41527119     -7.97417784     -1.30845517
  H      1.56071946     -5.05252139     -1.40610167
  H     -5.31898619     -3.46104613     -4.00546621
  C     -0.20455556     -3.76471975     -4.29813720
  C     -0.76997244     -2.92968091     -5.26575649
  C     -0.47564538     -3.10524297     -6.60891721
  C      0.39601760     -4.11037956     -7.00570380
  C      0.97870409     -4.93345829     -6.05055158
  C      0.68705634     -4.76034142     -4.70656115
  H      0.62083165     -4.25267599     -8.05597615
  H      1.66182627     -5.71843983     -6.35346076
  H      1.14662887     -5.41178929     -3.97182323
  H      1.74366837     -7.33278875     -0.50394408
  H     -0.93297243     -2.45492385     -7.34578649
  H     -1.45279793     -2.14372377     -4.96651997
  P      2.89101285      3.97673421      0.27646710
  C      1.48125894      5.09280235     -0.04393440
  C      1.45587442      6.42942678      0.36152241
  C      0.35761894      7.22875210      0.07562166
  C     -0.72918455      6.70767034     -0.61336860
  C     -0.71504086      5.38038546     -1.01927202
  C      0.38090278      4.58292075     -0.73393849
  H     -1.58875352      7.33184195     -0.82826734
  H      2.29310943      6.84534852      0.91025242
  H      0.38648700      3.54471418     -1.04650279
  H     -1.56053302      4.96304306     -1.55435678
  C      4.05865885      4.36234167     -1.06379216
  C      4.86201804      3.32460480     -1.53941863
  C      5.83503648      3.56287819     -2.49697097
  C      6.00995539      4.84443528     -3.00187928
  C      5.19175006      5.87782890     -2.56403391
  C      4.21951504      5.64129145     -1.60414279
  H      3.57953043      6.45314171     -1.27766079
  H      6.77573830      5.03592619     -3.74419525
  H      5.31369248      6.87583976     -2.96872255
  H      4.71523604      2.32274899     -1.15088389
  H      0.35226884      8.26451362      0.39468253
  C      3.65842157      4.68264529      1.76750631
  C      3.24370169      4.16525625      2.99778588
  C      3.76055030      4.65839242      4.18435884
  C      4.71135944      5.66987779      4.15915251
  C      5.14382405      6.18050409      2.94305475
  C      4.62343729      5.69214406      1.75400858
  H      5.11988613      6.05469403      5.08608856
  H      5.89212231      6.96415479      2.91841960
  H      4.97631768      6.09361554      0.81105613
  H      6.45689896      2.74760038     -2.84861450
  H      3.42385600      4.24987163      5.13049725
  H      2.50763803      3.36784154      3.01876229
  P      4.81994006     -3.59918970      0.94744799
  C      5.33292215     -1.85616533      1.12148941
  C      5.08633635     -1.21227596      2.33905465
  C      5.29405966      0.14996164      2.47823186
  C      5.76390905      0.89584107      1.40352614
  C      6.02400884      0.26583409      0.19406001
  C      5.79296210     -1.09392585      0.04695411
  H      5.93516295      1.96035157      1.51257134
  H      4.72346696     -1.78527998      3.18513028
  H      5.97714255     -1.56140602     -0.91328022
  H      6.41122692      0.83313219     -0.64420133
  C      5.70264247     -4.22877983     -0.51060864
  C      4.98694271     -5.03665548     -1.39893464
  C      5.59157920     -5.54948776     -2.53605961
  C      6.92312607     -5.26019365     -2.80206682
  C      7.64494425     -4.45739958     -1.92884837
  C      7.04306197     -3.94222048     -0.79104455
  H      7.61492718     -3.30908052     -0.12252161
  H      7.39812860     -5.65935960     -3.69047921
  H      8.68421516     -4.22923090     -2.13487117
  H      3.94513893     -5.26091113     -1.19271306
  H      5.08712468      0.63145043      3.42739626
  C      5.55328321     -4.40181618      2.40644154
  C      4.76544834     -4.46944861      3.55989936
  C      5.25999179     -5.03668992      4.72293568
  C      6.54604177     -5.55934143      4.74609628
  C      7.33010008     -5.51573292      3.60152010
  C      6.84051065     -4.94150058      2.43837204
  H      6.93316446     -6.00808919      5.65323417
  H      8.33080775     -5.93172578      3.61216494
  H      7.46320520     -4.91993187      1.55196046
  H      5.02256293     -6.17574653     -3.21362282
  H      4.63766239     -5.07742503      5.60948839
  H      3.75190166     -4.08064940      3.53703754
