#B3LYP/6-31+G(d) OPT FREQ

246, Energy =   -372.44738073 au

0 1
 Au      0.93268180      1.85702568     -1.65892429
 Au     -1.44561944     -1.60631750      1.19028976
 Au      2.35830862     -3.07063251      3.27094016
 Au      0.10329010     -0.86100098     -1.13341813
 Au     -1.66929991      1.24973369     -1.74369079
 Au     -0.26381735      0.94733913      0.72049695
 Au      1.16106965     -1.50091364      1.45383639
 Au      3.81600571     -1.46353450      1.89188073
  P      0.97489070     -4.29046840      4.78417167
  C      0.18871158     -3.08492957      5.90508706
  C     -0.39472396     -3.43432962      7.12616264
  C     -0.99925334     -2.46984470      7.91898226
  C     -1.02510184     -1.14277932      7.51072452
  C     -0.44421251     -0.78254969      6.30291013
  C      0.15086005     -1.74717803      5.50707914
  H     -1.49197309     -0.38974613      8.13490834
  H     -0.36771091     -4.46371360      7.46465323
  H      0.60177847     -1.45893761      4.56367960
  H     -0.44707875      0.25246359      5.98142662
  C      1.57966019     -5.60372736      5.88333864
  C      1.43262988     -6.95463700      5.55665627
  C      1.98183856     -7.93562452      6.36782849
  C      2.69370019     -7.58326885      7.50609520
  C      2.86256242     -6.24329710      7.82931167
  C      2.31755152     -5.25883431      7.02105606
  H      2.45843463     -4.21340903      7.27443984
  H      3.12087205     -8.35220778      8.13890159
  H      3.42339281     -5.96293126      8.71340909
  H      0.88148696     -7.23889468      4.66714923
  H     -1.44645835     -2.75598708      8.86387089
  C     -0.48326063     -5.01984222      3.96115396
  C     -0.62671788     -4.87591823      2.58095718
  C     -1.74669490     -5.36691454      1.92638165
  C     -2.74091256     -6.01500149      2.64501472
  C     -2.60741445     -6.17331493      4.01823015
  C     -1.48915120     -5.68082131      4.67252219
  H     -3.61844248     -6.39624275      2.13575706
  H     -3.38008030     -6.68129295      4.58363655
  H     -1.39605833     -5.81108732      5.74473297
  H      1.85367418     -8.98001895      6.10768077
  H     -1.83893657     -5.24407208      0.85318341
  H      0.15192117     -4.37828571      2.01455010
  P      5.57633988      0.00374811      1.19180993
  C      5.03728504      1.74505540      1.10308761
  C      5.86662710      2.81676963      1.44052144
  C      5.38634717      4.11676189      1.41173151
  C      4.07124185      4.36659648      1.04501296
  C      3.24258048      3.31007493      0.69558325
  C      3.71903549      2.01053716      0.72834878
  H      3.69009108      5.38080878      1.03707029
  H      6.89266611      2.63264666      1.73773147
  H      3.05878634      1.18772400      0.47395810
  H      2.21379394      3.49735672      0.41074458
  C      6.46087391     -0.25802804     -0.37894249
  C      7.19783051     -1.43856722     -0.52364780
  C      7.87606801     -1.70677963     -1.70120098
  C      7.81677866     -0.80689327     -2.75815470
  C      7.07114491      0.35730975     -2.63214439
  C      6.39441087      0.63213650     -1.45200040
  H      5.81923303      1.54722880     -1.36298093
  H      8.34897019     -1.01381375     -3.67910105
  H      7.01829909      1.05791902     -3.45764074
  H      7.24465014     -2.14393539      0.29931455
  H      6.03971251      4.93795496      1.68252254
  C      6.91459696      0.04963147      2.42132306
  C      6.59039454     -0.25490206      3.74578997
  C      7.55548707     -0.21427341      4.73875452
  C      8.86350644      0.12511914      4.41992751
  C      9.20091347      0.42131078      3.10623026
  C      8.23582091      0.38567491      2.11148334
  H      9.62095240      0.15320149      5.19433328
  H     10.22215551      0.68127581      2.85282607
  H      8.51096581      0.61075547      1.08732118
  H      8.45241664     -2.61967770     -1.79553232
  H      7.28765563     -0.45317480      5.76150914
  H      5.56996561     -0.52993722      3.99318274
  P      0.33492681     -2.47523318     -2.86929219
  C     -0.69525421     -2.10743514     -4.31897306
  C     -0.20128847     -1.33783711     -5.37518142
  C     -1.02633752     -0.97303019     -6.42720626
  C     -2.36112224     -1.35409018     -6.43321387
  C     -2.87231497     -2.09230053     -5.37457191
  C     -2.04820294     -2.46133458     -4.32308314
  H     -3.00422410     -1.06915355     -7.25739161
  H      0.83735281     -1.02608995     -5.37629018
  H     -2.45532972     -3.03709504     -3.49942485
  H     -3.91696132     -2.38173222     -5.36544214
  C      0.00022470     -4.21924595     -2.45587322
  C      0.38175777     -4.66339707     -1.18715074
  C      0.21425181     -5.98931421     -0.82074537
  C     -0.35528903     -6.88869554     -1.71240572
  C     -0.73870988     -6.45913349     -2.97538396
  C     -0.55394144     -5.13660368     -3.35164122
  H     -0.83925761     -4.82036771     -4.34820728
  H     -0.49447485     -7.92402846     -1.42466524
  H     -1.17492345     -7.15912043     -3.67851595
  H      0.82049764     -3.96172543     -0.48470171
  H     -0.62456095     -0.38518456     -7.24463560
  C      2.03411641     -2.56491875     -3.50931685
  C      3.05150121     -1.92424962     -2.80116874
  C      4.36581834     -1.99774435     -3.23409565
  C      4.68058234     -2.71084859     -4.38239678
  C      3.67646650     -3.35769052     -5.09257448
  C      2.36208561     -3.29092992     -4.65815047
  H      5.70854644     -2.76597551     -4.72111763
  H      3.91935069     -3.92039875     -5.98635178
  H      1.58378429     -3.80396931     -5.21211422
  H      0.53259986     -6.32244182      0.16031901
  H      5.14391798     -1.49529967     -2.67373459
  H      2.80842270     -1.36688679     -1.90244062
  P     -0.50442005      2.51156517      2.51542858
  C     -1.06224367      4.16571100      1.98893484
  C     -1.99581219      4.93385770      2.68694997
  C     -2.38828116      6.17416579      2.20507962
  C     -1.85911794      6.66643223      1.01995920
  C     -0.94028357      5.90551585      0.30760039
  C     -0.55469460      4.66472602      0.78509345
  H     -2.16035946      7.63979564      0.65126321
  H     -2.41998713      4.56394208      3.61301699
  H      0.15126795      4.06919536      0.21511862
  H     -0.52837940      6.27612107     -0.62438415
  C      1.11413435      2.79540430      3.30032841
  C      1.86013633      1.66301675      3.64043509
  C      3.11168697      1.78663466      4.21805122
  C      3.64094455      3.04758170      4.46161145
  C      2.90833529      4.17879122      4.13116458
  C      1.65230952      4.05751380      3.55328679
  H      1.09167158      4.94754284      3.29188477
  H      4.62474204      3.14677229      4.90499620
  H      3.31748596      5.16451834      4.31993861
  H      1.45254872      0.67647484      3.44442234
  H     -3.11086056      6.75983371      2.76140914
  C     -1.55306066      2.09636083      3.94801226
  C     -2.50471949      1.08244887      3.83812412
  C     -3.33475720      0.76882422      4.90285879
  C     -3.21557463      1.45789523      6.10154454
  C     -2.25600599      2.45362989      6.23354957
  C     -1.42923853      2.77207017      5.16730145
  H     -3.86438202      1.21414156      6.93453071
  H     -2.15073877      2.98607011      7.17157916
  H     -0.67734941      3.54488664      5.28179237
  H      3.67672739      0.89724076      4.47344316
  H     -4.07411937     -0.01612454      4.79674383
  H     -2.58997871      0.52874810      2.90940799
  P     -3.58091282      1.73721111     -3.05080486
  C     -4.97137487      0.56461516     -3.01547636
  C     -6.29984301      0.90313629     -3.28074333
  C     -7.27900088     -0.07902702     -3.31169102
  C     -6.94851430     -1.40649880     -3.07483087
  C     -5.63466250     -1.75053316     -2.78558712
  C     -4.65583232     -0.77060785     -2.75063216
  H     -7.71557895     -2.17118341     -3.10582436
  H     -6.57286564      1.93684024     -3.45695535
  H     -3.63003304     -1.03724527     -2.51624913
  H     -5.37111022     -2.78234084     -2.58263937
  C     -3.14683826      1.83163884     -4.81715164
  C     -1.84684310      2.21649798     -5.15294798
  C     -1.47152439      2.36394817     -6.47809520
  C     -2.39035949      2.12372092     -7.49113010
  C     -3.68091478      1.72424141     -7.17083702
  C     -4.05839752      1.57595563     -5.84432143
  H     -5.06599934      1.25371925     -5.60780954
  H     -2.09888947      2.24139124     -8.52806361
  H     -4.40032167      1.52854232     -7.95737884
  H     -1.12327100      2.40129815     -4.36599061
  H     -8.30562441      0.19539723     -3.52434555
  C     -4.24189772      3.39810123     -2.71836797
  C     -3.85882528      4.03081152     -1.53291985
  C     -4.31386431      5.30491543     -1.23120840
  C     -5.15139680      5.96975540     -2.11658678
  C     -5.51996414      5.36088992     -3.30888386
  C     -5.06584325      4.08690664     -3.61291121
  H     -5.50745578      6.96607268     -1.88269925
  H     -6.16017696      5.88325370     -4.01019691
  H     -5.33872177      3.63316251     -4.55885634
  H     -0.45831461      2.66468949     -6.71897649
  H     -4.00774599      5.77996496     -0.30609885
  H     -3.18621049      3.52173824     -0.84990545
  P     -3.78168080     -2.03602028      1.34718587
  C     -4.94523083     -0.75837327      0.76166888
  C     -6.26025510     -1.05075787      0.39027397
  C     -7.13374426     -0.03389592      0.03617818
  C     -6.70904249      1.28749480      0.04335721
  C     -5.39850196      1.58777553      0.38758091
  C     -4.52199108      0.57186792      0.73452456
  H     -7.39514218      2.08135648     -0.22731667
  H     -6.60045595     -2.07975971      0.36788607
  H     -3.49576849      0.81360715      0.98965623
  H     -5.05918198      2.61703386      0.38902278
  C     -4.30618032     -2.33449693      3.06340589
  C     -3.32237936     -2.72932290      3.97373677
  C     -3.64307765     -2.98952607      5.29603685
  C     -4.95257545     -2.84611964      5.73353808
  C     -5.93635532     -2.43519006      4.84394551
  C     -5.61853424     -2.17951803      3.51866576
  H     -6.39397936     -1.84681826      2.83849495
  H     -5.20448291     -3.04687523      6.76815439
  H     -6.95818371     -2.31119570      5.18292182
  H     -2.29568095     -2.82851306      3.63796449
  H     -8.15141170     -0.27619490     -0.24705784
  C     -4.27700369     -3.53191290      0.43637580
  C     -3.55763070     -3.83943547     -0.72227652
  C     -3.86153125     -4.96878992     -1.46618715
  C     -4.88667695     -5.81197868     -1.05735823
  C     -5.60083052     -5.52271797      0.09728661
  C     -5.29854347     -4.39222035      0.84301466
  H     -5.12237716     -6.69835656     -1.63433885
  H     -6.39629680     -6.18254062      0.42346869
  H     -5.85149133     -4.18522117      1.75211677
  H     -2.86832208     -3.30208078      5.98643501
  H     -3.28922718     -5.19703858     -2.35835778
  H     -2.74640119     -3.18837730     -1.03336754
  P      2.12500749      3.33494167     -3.12678189
  C      1.07604389      4.76418207     -3.53255487
  C      1.55137840      5.86180834     -4.25927807
  C      0.70961516      6.91901132     -4.56787959
  C     -0.61595844      6.90358844     -4.15476340
  C     -1.09754224      5.82703710     -3.42299593
  C     -0.25611851      4.76962107     -3.11449823
  H     -1.27097934      7.73212517     -4.39701290
  H      2.58811631      5.89194870     -4.57464323
  H     -0.63633660      3.93698441     -2.53241088
  H     -2.12852746      5.80921296     -3.08820306
  C      2.36157071      2.46011749     -4.70708466
  C      2.80783755      1.13652597     -4.64681045
  C      3.01509363      0.40567415     -5.80653890
  C      2.75926976      0.98058332     -7.04439406
  C      2.30305292      2.28952482     -7.11590427
  C      2.10844420      3.02730490     -5.95709966
  H      1.75918689      4.05069072     -6.02913852
  H      2.91508535      0.40842750     -7.95130813
  H      2.10365954      2.74400833     -8.07939280
  H      2.99065421      0.67645379     -3.68088485
  H      1.09234791      7.76072114     -5.13315266
  C      3.75098715      4.08472045     -2.78957550
  C      3.82110100      5.25658835     -2.02951563
  C      5.04843253      5.81905296     -1.71636100
  C      6.22260291      5.21173027     -2.14045334
  C      6.16389580      4.04143965     -2.88445774
  C      4.93814516      3.47797791     -3.20577397
  H      7.18164824      5.65178571     -1.89443499
  H      7.07763585      3.56802861     -3.22466058
  H      4.90262384      2.57093699     -3.79880186
  H      3.38175481     -0.61246242     -5.74453647
  H      5.08701047      6.73512738     -1.13837205
  H      2.90816801      5.73476701     -1.69116732

