#B3LYP/6-31+G(d) OPT FREQ

246, Energy =   -372.43808125 au

0 1
 Au      0.27424389      0.05021416     -1.70955342
 Au     -0.94696361      1.44717376      0.36102755
 Au      2.53118030     -2.24471726      2.02738428
 Au     -2.11145407     -1.03772707      1.41756302
 Au      0.88800420     -0.50668295      1.04541309
 Au     -0.04590430     -2.26829785      2.81073826
 Au     -3.55154960      0.33065600     -0.18247994
 Au      0.44513570      2.67939415     -1.63314184
  P      0.52857055      4.94755832     -2.30352779
  C      2.16834675      5.71640121     -2.42658681
  C      2.44402722      6.80053627     -3.26424149
  C      3.71745919      7.34755229     -3.30235699
  C      4.72795135      6.82575755     -2.50593739
  C      4.46609919      5.74516493     -1.67364894
  C      3.19638105      5.19131576     -1.63971561
  H      5.72119769      7.25780692     -2.53696083
  H      1.66113567      7.21093092     -3.89169100
  H      2.99597975      4.33466834     -1.00457945
  H      5.25250765      5.32982273     -1.05396008
  C     -0.39284345      5.97071968     -1.11307154
  C     -1.45919346      5.38254638     -0.42778237
  C     -2.18182806      6.10132260      0.51025979
  C     -1.85177066      7.42384778      0.77356544
  C     -0.79770263      8.02115453      0.09549755
  C     -0.06972942      7.30128433     -0.83950110
  H      0.75751581      7.77393455     -1.35667754
  H     -2.41208931      7.98623185      1.51113833
  H     -0.53628305      9.05293899      0.29952128
  H     -1.71922257      4.34864489     -0.62976543
  H      3.92077295      8.18703748     -3.95694213
  C     -0.27583179      5.29255472     -3.89495186
  C      0.35507833      4.85625065     -5.06490389
  C     -0.26572789      4.99923683     -6.29518566
  C     -1.53176611      5.56588188     -6.37342028
  C     -2.16885251      5.99632330     -5.21808203
  C     -1.54750645      5.86043936     -3.98564167
  H     -2.01998421      5.67227461     -7.33487688
  H     -3.15514355      6.44238891     -5.27446889
  H     -2.04931590      6.20433633     -3.08867968
  H     -3.00005452      5.62591757      1.03959027
  H      0.23788328      4.66315957     -7.19428569
  H      1.34109592      4.40793263     -5.00304158
  P     -0.97242374      2.55070041      2.54948034
  C     -0.15555113      4.18032075      2.62038882
  C     -0.55479250      5.20698882      3.47771606
  C      0.11323287      6.42229930      3.47515669
  C      1.18676920      6.63114062      2.62065875
  C      1.58733306      5.62077539      1.75696504
  C      0.91656726      4.40881925      1.75273479
  H      1.70457126      7.58294271      2.61973033
  H     -1.39416587      5.06088983      4.14741685
  H      1.21653161      3.63222491      1.05616981
  H      2.41632431      5.78025542      1.07660783
  C      0.04729459      1.54063679      3.68035232
  C     -0.53353452      0.51362831      4.42982472
  C      0.25214827     -0.32773681      5.20648754
  C      1.63313459     -0.17503870      5.22888019
  C      2.22173599      0.83215793      4.47684771
  C      1.43693932      1.68140910      3.71153093
  H      1.91086925      2.46976103      3.13846520
  H      2.24338466     -0.83529894      5.83388406
  H      3.29787932      0.96143826      4.48872508
  H     -1.60848487      0.37374310      4.41617162
  H     -0.20971185      7.21137660      4.14420831
  C     -2.53307752      2.73632254      3.46849912
  C     -3.73142325      2.70835439      2.75357838
  C     -4.94922828      2.81061659      3.40749725
  C     -4.98625700      2.94898937      4.78797935
  C     -3.80112182      2.98385354      5.51123087
  C     -2.58229371      2.87719629      4.85995942
  H     -5.93780541      3.02829396      5.30024235
  H     -3.82526492      3.09331321      6.58917728
  H     -1.66331535      2.89400991      5.43472187
  H     -0.21778286     -1.09489491      5.81024483
  H     -5.87206807      2.77820305      2.84006780
  H     -3.70541511      2.60064554      1.67395658
  P     -0.56210744     -2.07649309     -2.64480035
  C     -0.21820455     -3.72144677     -1.92706903
  C     -0.72845810     -4.89807968     -2.48543448
  C     -0.44686736     -6.12798130     -1.91060064
  C      0.33823388     -6.20405654     -0.76655669
  C      0.83356186     -5.04168511     -0.19467528
  C      0.55460712     -3.81319185     -0.77167563
  H      0.55560499     -7.16577985     -0.31635884
  H     -1.35482158     -4.84781538     -3.36888884
  H      0.93488229     -2.90763667     -0.31470764
  H      1.43520204     -5.08640332      0.70511013
  C      0.13406660     -2.13868132     -4.32313379
  C      0.03853625     -0.96721711     -5.08279874
  C      0.60129541     -0.89235290     -6.34658282
  C      1.29344087     -1.98067908     -6.86240053
  C      1.41269727     -3.14030577     -6.11014037
  C      0.83646062     -3.22229738     -4.85076719
  H      0.94627580     -4.13306892     -4.27381149
  H      1.74402684     -1.92134036     -7.84601281
  H      1.96109215     -3.98882526     -6.50277352
  H     -0.47959971     -0.10745515     -4.67067085
  H     -0.84334675     -7.03213409     -2.35766087
  C     -2.36653268     -2.21954402     -2.89162666
  C     -3.13620750     -2.58787104     -1.78170640
  C     -4.51514248     -2.68737845     -1.87479323
  C     -5.14927788     -2.41935846     -3.08152500
  C     -4.39672376     -2.04900606     -4.18660463
  C     -3.01640140     -1.94078038     -4.09320920
  H     -6.22662228     -2.50417128     -3.15984809
  H     -4.88500275     -1.84971964     -5.13343122
  H     -2.44414122     -1.65176940     -4.96714887
  H      0.50409707      0.01804548     -6.92722237
  H     -5.09148720     -2.98883802     -1.00774783
  H     -2.64311204     -2.82787278     -0.84591431
  P      4.00819951     -3.96748819      2.68064838
  C      3.24568219     -5.62024014      2.65495652
  C      3.91639076     -6.76422331      2.21696177
  C      3.27310928     -7.99302309      2.20673860
  C      1.95669511     -8.09949055      2.63345730
  C      1.27955561     -6.96962061      3.07387138
  C      1.91873039     -5.74083982      3.07913955
  H      1.45715382     -9.06101195      2.62208649
  H      4.94377895     -6.69214437      1.87951719
  H      1.38339453     -4.85792581      3.41355083
  H      0.25014749     -7.04295036      3.40681330
  C      4.59569841     -3.77350648      4.38632533
  C      4.67104646     -2.48024262      4.91060042
  C      5.07647540     -2.27191593      6.21895255
  C      5.40463391     -3.35557960      7.02296227
  C      5.33049647     -4.64502667      6.51329227
  C      4.92846471     -4.85672892      5.20365453
  H      4.86823637     -5.86633365      4.81318541
  H      5.71623101     -3.19483814      8.04828328
  H      5.58572056     -5.49202804      7.13940835
  H      4.40704377     -1.63556574      4.28213341
  H      3.80518745     -8.87237469      1.86298675
  C      5.48485453     -4.12957296      1.63751245
  C      5.28221473     -4.28681807      0.26116159
  C      6.36000321     -4.34284757     -0.60635903
  C      7.65436474     -4.23345645     -0.11272703
  C      7.86506621     -4.07039550      1.24902602
  C      6.78838543     -4.01445727      2.12251055
  H      8.49800424     -4.27296554     -0.79158805
  H      8.87358583     -3.98397654      1.63630604
  H      6.96016688     -3.88427696      3.18480118
  H      5.13235668     -1.26359622      6.61263628
  H      6.18877635     -4.46648446     -1.66981773
  H      4.27039434     -4.36682010     -0.12400692
  P     -4.71099349      1.62310969     -1.79421801
  C     -6.41469622      1.08700354     -2.11813958
  C     -7.26886624      1.80663614     -2.96088632
  C     -8.56671130      1.37209463     -3.17537753
  C     -9.03176906      0.22268025     -2.54890748
  C     -8.19718044     -0.49013940     -1.69951880
  C     -6.89727885     -0.05854926     -1.48402150
  H    -10.04790200     -0.11336247     -2.71854515
  H     -6.91416154      2.71172240     -3.44169072
  H     -6.24495341     -0.61033381     -0.81562693
  H     -8.55889402     -1.38179407     -1.20063349
  C     -3.88605518      1.65369592     -3.41621971
  C     -2.57817350      2.14382429     -3.47099133
  C     -1.86188065      2.13336767     -4.65567305
  C     -2.44436385      1.63322091     -5.81369517
  C     -3.74131916      1.14179644     -5.77332606
  C     -4.45647874      1.14621073     -4.58389618
  H     -5.46658476      0.75423890     -4.56650134
  H     -1.88715825      1.62802604     -6.74317852
  H     -4.20199132      0.75057809     -6.67299988
  H     -2.11918747      2.54033764     -2.57161705
  H     -9.21982153      1.93499205     -3.83196138
  C     -4.93790029      3.38185125     -1.37318603
  C     -5.59065455      3.65542643     -0.16713202
  C     -5.81004764      4.96105781      0.23926546
  C     -5.38103976      6.01603555     -0.55668786
  C     -4.73608252      5.75566031     -1.75738546
  C     -4.51114571      4.44834277     -2.16472606
  H     -5.55419448      7.03871295     -0.24330632
  H     -4.40869263      6.57613849     -2.38554738
  H     -4.01049143      4.26223553     -3.10785690
  H     -0.85079955      2.52399772     -4.67596808
  H     -6.32012003      5.15636359      1.17546217
  H     -5.94133214      2.83142323      0.44558165
  P      2.82815247     -0.00654514     -2.42375638
  C      3.46622145      1.37392825     -3.43697955
  C      4.55325057      2.17464114     -3.08159445
  C      4.94738782      3.22416032     -3.89827170
  C      4.27538138      3.48136322     -5.08478954
  C      3.19768174      2.68592227     -5.45369860
  C      2.78818188      1.65009972     -4.62911470
  H      4.59143378      4.29816731     -5.72284297
  H      5.09583511      1.97801188     -2.16429207
  H      1.93685153      1.03949868     -4.91172526
  H      2.68026939      2.86728452     -6.38879796
  C      3.57938884     -1.48893710     -3.18401562
  C      3.27460993     -2.73273089     -2.62104451
  C      3.75201498     -3.90507305     -3.18454649
  C      4.53454695     -3.85342834     -4.33136255
  C      4.83280883     -2.62605290     -4.90671718
  C      4.35839509     -1.45145328     -4.34171041
  H      4.59761197     -0.50080393     -4.80378527
  H      4.90429028     -4.76856263     -4.77839774
  H      5.43858667     -2.58077380     -5.80432448
  H      2.65087577     -2.77861478     -1.73538256
  H      5.78943715      3.84127015     -3.60674239
  C      3.73006194      0.18078604     -0.84418624
  C      3.47976027      1.33559252     -0.09333514
  C      4.04734862      1.51914900      1.15633739
  C      4.86294018      0.53464357      1.69787195
  C      5.11541765     -0.62120464      0.97049213
  C      4.55679466     -0.79793488     -0.28952707
  H      5.30619723      0.66951255      2.67732716
  H      5.77041647     -1.38343269      1.37569680
  H      4.78254606     -1.70127419     -0.84387854
  H      3.50198836     -4.85934611     -2.73468899
  H      3.85178614      2.43213894      1.70672562
  H      2.83717228      2.10698532     -0.50466834
  P     -1.65682840     -3.47539910      4.01727185
  C     -3.19023675     -2.52149760      4.22681473
  C     -4.19761608     -2.55257929      3.25817720
  C     -5.27239729     -1.67853202      3.33201112
  C     -5.35104281     -0.75400201      4.36396086
  C     -4.36013811     -0.71926712      5.33584010
  C     -3.28680528     -1.59399860      5.26858567
  H     -6.18373865     -0.06217681      4.41264433
  H     -4.14943767     -3.27398134      2.45119059
  H     -2.52057822     -1.56213550      6.03505357
  H     -4.41851252     -0.00290769      6.14727803
  C     -1.17269449     -3.98917271      5.68620526
  C      0.18237373     -3.97375073      6.02608986
  C      0.59901404     -4.36990444      7.28681668
  C     -0.33565546     -4.78090379      8.22746287
  C     -1.68635254     -4.79129270      7.90459183
  C     -2.10683825     -4.39804892      6.64374015
  H     -3.16344014     -4.39921478      6.40094180
  H     -0.01199522     -5.08851974      9.21476460
  H     -2.41797319     -5.10623734      8.63942698
  H      0.91296866     -3.64363173      5.29496902
  H     -6.04718869     -1.71816140      2.57496006
  C     -2.13487963     -4.97696057      3.11601486
  C     -2.22139144     -4.89984069      1.72257345
  C     -2.57824062     -6.00828633      0.97300651
  C     -2.82988858     -7.21939609      1.60368078
  C     -2.72607127     -7.31393421      2.98475048
  C     -2.38338929     -6.20164247      3.73943758
  H     -3.10112076     -8.08987638      1.01817626
  H     -2.91563961     -8.25881178      3.48048623
  H     -2.30986283     -6.28637666      4.81743528
  H      1.65424279     -4.35345109      7.53476709
  H     -2.64912937     -5.92813255     -0.10571897
  H     -1.99718969     -3.96233275      1.22399971

