#B3LYP/6-31+G(d) OPT FREQ

246, Energy =   -372.45125072 au

0 1
 Au     -0.58782944      2.02146582     -0.01879322
 Au     -2.00633899      0.26797239      1.27901987
 Au      3.42099008     -0.73690766     -2.17107025
 Au      1.53962924     -1.63151181     -0.38627704
 Au     -0.27106606      2.15803066      2.83900697
 Au     -1.17166182     -0.49516261     -1.19399177
 Au      1.44455163      0.76501771     -1.41957373
 Au     -2.50059046      3.04775153      1.91817462
  P     -3.73121924     -1.08747804      2.24874643
  C     -4.89189722     -0.09687018      3.24009911
  C     -6.27215781     -0.09429019      3.03903617
  C     -7.09074490      0.72417124      3.80478875
  C     -6.54434679      1.54603123      4.78027169
  C     -5.17104473      1.55096806      4.98992474
  C     -4.35074400      0.74292038      4.21975887
  H     -7.18592502      2.18534791      5.37511556
  H     -6.71030452     -0.72968665      2.27799419
  H     -3.27682448      0.75933914      4.37607101
  H     -4.73809166      2.18626021      5.75396281
  C     -3.30567450     -2.50036042      3.31946544
  C     -2.63771630     -3.58053831      2.73185680
  C     -2.27045590     -4.67862933      3.49062724
  C     -2.54142763     -4.70656280      4.85285760
  C     -3.18465174     -3.63159980      5.44950144
  C     -3.56667644     -2.53534786      4.68962328
  H     -4.07778654     -1.70665932      5.16583298
  H     -2.24987542     -5.56478637      5.44670521
  H     -3.39737538     -3.64690110      6.51215713
  H     -2.41195414     -3.55819369      1.67028727
  H     -8.16176643      0.71587490      3.63860149
  C     -4.75837309     -1.88514552      0.97234292
  C     -4.71454391     -1.40240089     -0.33616582
  C     -5.44199772     -2.01276271     -1.34589361
  C     -6.23707643     -3.11331316     -1.05944084
  C     -6.30028568     -3.59815355      0.24049644
  C     -5.56596800     -2.99365863      1.24868198
  H     -6.80271954     -3.59526137     -1.84811406
  H     -6.92129754     -4.45624720      0.47010770
  H     -5.61313241     -3.38819850      2.25728074
  H     -1.76907994     -5.51516752      3.01744785
  H     -5.38012188     -1.63207331     -2.35918499
  H     -4.10044047     -0.53894438     -0.56578175
  P      0.45574935      3.80521009     -1.24838512
  C      2.17491709      3.56392297     -1.81831742
  C      2.58093876      3.70617107     -3.14652941
  C      3.89713004      3.46094577     -3.50971530
  C      4.82966211      3.08478349     -2.55329651
  C      4.44341411      2.96221869     -1.22513382
  C      3.12687218      3.19421219     -0.85884771
  H      5.85692936      2.89220874     -2.83979465
  H      1.86563175      4.00451140     -3.90362138
  H      2.83051532      3.09944539      0.18064628
  H      5.16794296      2.67835141     -0.47114481
  C      0.50362896      5.50168375     -0.57997475
  C      0.08971314      5.74511776      0.72898818
  C      0.14174222      7.02481124      1.26172891
  C      0.60992068      8.07749109      0.48741266
  C      1.03128936      7.84548469     -0.81616371
  C      0.98451050      6.56707200     -1.34808449
  H      1.32240704      6.39070560     -2.36338001
  H      0.65031118      9.07848685      0.90028436
  H      1.40088499      8.66520135     -1.42118547
  H     -0.28076012      4.92424598      1.33369005
  H      4.19426602      3.56732283     -4.54668488
  C     -0.51591321      3.91404630     -2.77665022
  C     -0.46942489      2.84305791     -3.67518827
  C     -1.27136744      2.82642169     -4.80271423
  C     -2.15978127      3.86912615     -5.03692914
  C     -2.23467676      4.92494915     -4.14017146
  C     -1.41888345      4.95019412     -3.01869272
  H     -2.79472927      3.85299091     -5.91490949
  H     -2.93342457      5.73617241     -4.31021159
  H     -1.48558364      5.78111959     -2.32575729
  H     -0.18586834      7.19789162      2.28024748
  H     -1.21034061      1.99512512     -5.49560245
  H      0.20623333      2.01449757     -3.48339446
  P      1.93363543      1.81324279      3.73241363
  C      2.44849037      3.44971375      4.33456384
  C      2.96825215      3.69294697      5.60651345
  C      3.30836013      4.98278751      5.98772158
  C      3.13833803      6.04210227      5.10745999
  C      2.62225643      5.81154878      3.83848088
  C      2.27501273      4.52642626      3.45791316
  H      3.40506043      7.04789172      5.40988732
  H      3.10598379      2.87250729      6.30127085
  H      1.86589580      4.34645494      2.46841809
  H      2.48440020      6.63421946      3.14567308
  C      3.35948398      1.30012650      2.70752838
  C      3.29440197      0.08610237      2.01882699
  C      4.36925004     -0.35716290      1.26343855
  C      5.52232622      0.40958687      1.16992410
  C      5.59260333      1.62583385      1.83469534
  C      4.52068064      2.06798707      2.59640387
  H      4.59510479      3.01413795      3.11887170
  H      6.36291159      0.05517902      0.58542183
  H      6.49200063      2.22759995      1.77457767
  H      2.39940817     -0.52297594      2.09147883
  H      3.70973515      5.15956355      6.97885990
  C      2.03944573      0.73350487      5.19246869
  C      1.04316216      0.88307159      6.16354127
  C      1.04157091      0.09309450      7.30133469
  C      2.02471948     -0.87324861      7.47690453
  C      3.00561043     -1.04399573      6.50996317
  C      3.01689781     -0.24589564      5.37560968
  H      2.02353987     -1.49349791      8.36541655
  H      3.77106538     -1.80049679      6.63976665
  H      3.79317541     -0.38532840      4.63209452
  H      4.31512955     -1.31412644      0.75793194
  H      0.27097554      0.22882020      8.05130956
  H      0.26882364      1.63011301      6.02198913
  P      1.58224274     -3.48053456      1.05701335
  C      0.68982227     -4.93779106      0.43770471
  C      0.30429448     -6.00756047      1.24925057
  C     -0.34239286     -7.10500274      0.70248243
  C     -0.59940999     -7.15811437     -0.66130086
  C     -0.21404428     -6.10425275     -1.47827275
  C      0.41707921     -4.99783335     -0.93116768
  H     -1.10053700     -8.01939386     -1.08691401
  H      0.51406619     -5.98539879      2.31204719
  H      0.70184524     -4.16695943     -1.56914975
  H     -0.41444934     -6.13926819     -2.54300451
  C      0.98626761     -3.14323256      2.74137884
  C      0.21404245     -2.00152727      2.95876000
  C     -0.24863668     -1.68402828      4.22518904
  C      0.05065472     -2.51098458      5.29794668
  C      0.82987944     -3.64324255      5.10023843
  C      1.30188921     -3.95612745      3.83521907
  H      1.92854720     -4.82985140      3.69892246
  H     -0.31506144     -2.26893036      6.28862289
  H      1.07620410     -4.28492297      5.93810100
  H     -0.02753074     -1.35474508      2.12264153
  H     -0.64097165     -7.92585920      1.34426562
  C      3.27570328     -4.08701479      1.32299233
  C      3.81988282     -5.06778877      0.49122523
  C      5.14830703     -5.44231082      0.61830719
  C      5.95458291     -4.84075109      1.57543990
  C      5.42424252     -3.86460558      2.40920430
  C      4.09714161     -3.48538981      2.28218759
  H      6.99255515     -5.13527405      1.67492707
  H      6.04658584     -3.39364672      3.16131806
  H      3.69261537     -2.72342902      2.93924387
  H     -0.84462647     -0.79021609      4.37152002
  H      5.55432834     -6.20629495     -0.03492254
  H      3.19826584     -5.54303457     -0.25883921
  P     -4.52995953      3.97163622      1.04178485
  C     -5.63093250      2.78331441      0.21164180
  C     -6.80997283      2.32964441      0.80491530
  C     -7.60087831      1.38227599      0.17178860
  C     -7.22783025      0.87788958     -1.06504392
  C     -6.04979143      1.31245672     -1.65936602
  C     -5.24735283      2.24455647     -1.02120653
  H     -7.84932125      0.14491468     -1.56570025
  H     -7.11529985      2.72302060      1.76760283
  H     -4.32075499      2.56821583     -1.48513471
  H     -5.75829428      0.92122493     -2.62687079
  C     -4.29305052      5.29630552     -0.18767145
  C     -3.25104682      6.19758062      0.04574694
  C     -3.02561074      7.26048723     -0.81439474
  C     -3.83879976      7.43534631     -1.92752448
  C     -4.87303551      6.54232861     -2.17322288
  C     -5.10294326      5.48101667     -1.30985345
  H     -5.91752268      4.79515510     -1.51165311
  H     -3.66663116      8.26690266     -2.60064058
  H     -5.51162338      6.67596862     -3.03881059
  H     -2.61379233      6.06141728      0.91316662
  H     -8.51611023      1.04470003      0.64420840
  C     -5.59538883      4.76775660      2.28150704
  C     -5.25017285      4.67131532      3.63015333
  C     -6.03812518      5.26398769      4.60498087
  C     -7.17930081      5.96501943      4.24139135
  C     -7.52836119      6.07530451      2.90103788
  C     -6.74319741      5.48363475      1.92526812
  H     -7.79575861      6.42975144      5.00184931
  H     -8.41606961      6.62731132      2.61460487
  H     -7.01748437      5.57759476      0.88005861
  H     -2.21744678      7.95479026     -0.61334079
  H     -5.75849607      5.17993005      5.64897267
  H     -4.35660073      4.12411731      3.91209920
  P      5.28498248     -1.94137923     -2.98190611
  C      5.66145226     -1.53419905     -4.71150696
  C      5.45156896     -0.21175680     -5.11660870
  C      5.69658890      0.17328706     -6.42482160
  C      6.14163227     -0.76155759     -7.35035710
  C      6.34100480     -2.07934039     -6.96215474
  C      6.10359925     -2.46669702     -5.65178557
  H      6.32833390     -0.46345030     -8.37524907
  H      5.09096138      0.51578465     -4.39577963
  H      6.26174954     -3.49868312     -5.36000772
  H      6.68357683     -2.81238190     -7.68328336
  C      5.07982664     -3.74696008     -2.93806971
  C      3.78811877     -4.27050821     -2.86284842
  C      3.57617151     -5.64089447     -2.86416836
  C      4.65828439     -6.50896670     -2.92672217
  C      5.94976998     -6.00069182     -2.98320131
  C      6.16226495     -4.63054469     -2.99104345
  H      7.17378402     -4.24266257     -3.03035776
  H      4.49547361     -7.58027781     -2.92723617
  H      6.79696488     -6.67514815     -3.02606571
  H      2.94237886     -3.59395849     -2.80267469
  H      5.53435038      1.20278377     -6.72299580
  C      6.83270571     -1.66003018     -2.07277405
  C      6.97855243     -2.24945954     -0.81219687
  C      8.09988235     -1.99000802     -0.04040089
  C      9.08471537     -1.12996786     -0.51078594
  C      8.94276363     -0.53167690     -1.75500254
  C      7.82287602     -0.78971506     -2.53144757
  H      9.96116359     -0.92712261      0.09321992
  H      9.70845223      0.14001071     -2.12548460
  H      7.72037949     -0.31779193     -3.50212109
  H      2.56521788     -6.03013009     -2.81543504
  H      8.20410974     -2.46076735      0.93061232
  H      6.21163934     -2.92149774     -0.44070268
  P     -1.51354748     -1.80458415     -3.17915006
  C     -0.03842849     -2.30279323     -4.12875560
  C      0.27984856     -3.62085133     -4.45446465
  C      1.44480764     -3.91010990     -5.15266415
  C      2.30994358     -2.89135354     -5.52598069
  C      2.00567943     -1.57381217     -5.20325267
  C      0.84127887     -1.28402136     -4.51066656
  H      3.22114752     -3.12071926     -6.06628802
  H     -0.39111132     -4.42455870     -4.17363946
  H      0.60105935     -0.25354294     -4.26963827
  H      2.67129714     -0.77160549     -5.50068988
  C     -2.48571436     -0.90963638     -4.43009074
  C     -3.26606797      0.16913077     -4.00915192
  C     -4.01908618      0.89464156     -4.91907465
  C     -4.00259744      0.55028126     -6.26403711
  C     -3.22234605     -0.51397847     -6.69585411
  C     -2.46387163     -1.23738842     -5.78871696
  H     -1.84189974     -2.05332072     -6.13889125
  H     -4.59022215      1.11722491     -6.97637286
  H     -3.19926991     -0.77956290     -7.74632610
  H     -3.26648589      0.44650550     -2.96033266
  H      1.67659079     -4.93841874     -5.40509223
  C     -2.45063727     -3.33160174     -2.86080930
  C     -2.54016700     -3.76863033     -1.53709100
  C     -3.26378401     -4.90464383     -1.21140284
  C     -3.91384590     -5.61963087     -2.20789325
  C     -3.83803463     -5.19249506     -3.52739141
  C     -3.11469500     -4.05617943     -3.85441840
  H     -4.48384311     -6.50613097     -1.95605423
  H     -4.34890793     -5.74566702     -4.30691691
  H     -3.07255211     -3.72521964     -4.88571317
  H     -4.61015477      1.73790541     -4.58074789
  H     -3.32335090     -5.22868215     -0.17850595
  H     -2.03790473     -3.20609992     -0.75666317

