#B3LYP/6-31+G(d) OPT FREQ

246, Energy =   -372.44275961 au

0 1
 Au     -0.77244818      0.86589013      0.65982567
 Au      0.10838611     -0.22560127      3.08744536
 Au      3.24736638     -1.92921279     -0.83373267
 Au      1.64079769     -0.51788544      1.04211842
 Au      0.69703092     -1.44573850     -1.58799248
 Au      2.40991406      0.53915882     -1.59148035
 Au     -1.41325166      0.50379281     -1.94026070
 Au     -3.31853107      0.70222996     -0.10786504
  P     -1.20819583      0.03276104      5.04734224
  C     -1.58198323     -1.47789074      5.99555223
  C     -0.63786704     -2.03312683      6.86268950
  C     -0.89152186     -3.23660858      7.50292423
  C     -2.08547083     -3.90893392      7.28006661
  C     -3.02681870     -3.37266967      6.41206949
  C     -2.77646338     -2.17018363      5.76866773
  H     -2.28260388     -4.84847542      7.78251652
  H      0.29643496     -1.51483616      7.04766023
  H     -3.52118729     -1.75797758      5.09627775
  H     -3.96194269     -3.89107137      6.23342292
  C     -2.83851058      0.82046911      4.88130445
  C     -3.19704549      1.38496892      3.65787015
  C     -4.43152949      1.99104588      3.49079303
  C     -5.32214185      2.05605776      4.55282581
  C     -4.98298499      1.49064078      5.77462815
  C     -3.75496608      0.86995717      5.93816609
  H     -3.50750722      0.41250864      6.88925446
  H     -6.28053407      2.54654991      4.42969874
  H     -5.67931586      1.53066503      6.60409042
  H     -2.49967405      1.34935042      2.82800078
  H     -0.15300323     -3.64937708      8.18039445
  C     -0.27375033      1.07092887      6.21371505
  C      1.11212170      0.88460867      6.25029272
  C      1.90498768      1.62584886      7.11147878
  C      1.32511698      2.57894781      7.93954284
  C     -0.04661391      2.78897893      7.89482948
  C     -0.84230033      2.04190033      7.03918608
  H      1.94265928      3.16100047      8.61325972
  H     -0.50205018      3.53912435      8.53084193
  H     -1.91052318      2.22215727      7.01270833
  H     -4.69536634      2.41849200      2.53055322
  H      2.97654800      1.46402616      7.13212670
  H      1.56907293      0.15614473      5.58832634
  P     -0.93867439      0.39027621     -4.26814236
  C     -1.16057343      1.99213431     -5.09532861
  C     -0.52165159      2.34098676     -6.28836292
  C     -0.74233023      3.58402241     -6.86098693
  C     -1.60135055      4.49189541     -6.25598736
  C     -2.24264888      4.15476658     -5.07153529
  C     -2.02148890      2.91473545     -4.49503861
  H     -1.76959484      5.46280354     -6.70677032
  H      0.15443819      1.64150997     -6.76670902
  H     -2.51367111      2.65562707     -3.56318779
  H     -2.91112233      4.86056384     -4.59218393
  C     -2.01700611     -0.76193550     -5.17056956
  C     -2.95438810     -1.50434682     -4.45111756
  C     -3.80086541     -2.39171969     -5.09741072
  C     -3.72237920     -2.54576972     -6.47399348
  C     -2.79518763     -1.80986971     -7.20157148
  C     -1.94746193     -0.92317471     -6.55803379
  H     -1.22767184     -0.35161924     -7.13316630
  H     -4.38439158     -3.23750175     -6.98144858
  H     -2.73302115     -1.92688270     -8.27722346
  H     -3.01935969     -1.38189157     -3.37521555
  H     -0.23982458      3.84454128     -7.78520058
  C      0.74473364     -0.13994049     -4.71724025
  C      1.80880604      0.76531223     -4.63949445
  C      3.11418478      0.34508613     -4.85365236
  C      3.38005463     -0.98867295     -5.13470329
  C      2.33416269     -1.89860428     -5.20261028
  C      1.02801714     -1.48100954     -4.98926520
  H      4.39925497     -1.31460385     -5.30575235
  H      2.53443904     -2.93964365     -5.42884956
  H      0.21882608     -2.19978735     -5.04895636
  H     -4.52440212     -2.95930724     -4.52298429
  H      3.92367908      1.06413916     -4.80516467
  H      1.61185574      1.81100541     -4.43510623
  P     -0.51059767      3.43262030      1.11725112
  C     -2.14817875      4.14365305      1.52635443
  C     -2.46817652      4.69182619      2.76847009
  C     -3.74308887      5.18141223      3.01645101
  C     -4.71884592      5.12753768      2.03122224
  C     -4.41545080      4.57399671      0.79328246
  C     -3.14540233      4.08072517      0.54613034
  H     -5.71318526      5.51291307      2.22416454
  H     -1.71693266      4.74737139      3.54793026
  H     -2.91441964      3.66353225     -0.42869437
  H     -5.16956203      4.52968586      0.01599554
  C     -0.20120037      4.31089675     -0.45928964
  C      0.37214319      3.61354370     -1.52139536
  C      0.55494165      4.21486818     -2.75599037
  C      0.17172946      5.53408059     -2.94843569
  C     -0.39101995      6.24691770     -1.89818311
  C     -0.57983821      5.64192762     -0.66561880
  H     -1.03788235      6.20246927      0.14129377
  H      0.31024564      6.00351555     -3.91529104
  H     -0.69072668      7.27854122     -2.04155836
  H      0.67667382      2.58211486     -1.37787253
  H     -3.97229046      5.60912036      3.98564515
  C      0.59619611      4.25405276      2.31995796
  C      0.64029914      3.72940392      3.61633467
  C      1.46957180      4.28857705      4.57657770
  C      2.28640021      5.36300775      4.24962577
  C      2.26572393      5.87815642      2.96129826
  C      1.42510598      5.33130032      2.00337123
  H      2.94009549      5.79474688      4.99824651
  H      2.90376163      6.71429448      2.69916160
  H      1.40931318      5.75085958      1.00427851
  H      0.99783185      3.65296737     -3.57014945
  H      1.48400628      3.88100870      5.58055980
  H      0.02089390      2.87430641      3.87114297
  P     -5.68290463      0.47842562     -0.04024645
  C     -6.81002730      1.86382079      0.31584161
  C     -7.09699488      2.80471692     -0.67779692
  C     -7.87774802      3.91416705     -0.39165542
  C     -8.37344421      4.10764453      0.89121800
  C     -8.09025379      3.18238657      1.88625090
  C     -7.31207967      2.07023680      1.60354912
  H     -8.98241051      4.97581813      1.11341512
  H     -6.71570861      2.66214953     -1.68300478
  H     -7.10359427      1.34958472      2.38585187
  H     -8.47816431      3.32367366      2.88849238
  C     -6.19630149     -0.84552304      1.09086418
  C     -5.19249401     -1.60639570      1.69511554
  C     -5.50714893     -2.63308744      2.57039011
  C     -6.83565686     -2.91314435      2.85925068
  C     -7.84402461     -2.15878719      2.27408862
  C     -7.53083125     -1.13022488      1.39893394
  H     -8.32623571     -0.53736230      0.96212129
  H     -7.08501303     -3.71459817      3.54467883
  H     -8.88203373     -2.36982342      2.50333887
  H     -4.15337782     -1.38048956      1.47817324
  H     -8.10028687      4.62969343     -1.17466578
  C     -6.19415985     -0.04353493     -1.71155716
  C     -5.49262127      0.50038284     -2.79139582
  C     -5.81574457      0.15841867     -4.09470264
  C     -6.83998160     -0.74639618     -4.33931811
  C     -7.53982687     -1.29969336     -3.27584746
  C     -7.22406707     -0.94996497     -1.97115677
  H     -7.09016383     -1.02130590     -5.35718004
  H     -8.33900493     -2.00795863     -3.46121402
  H     -7.78129420     -1.38951345     -1.15235764
  H     -4.71454050     -3.21302635      3.02992411
  H     -5.26121643      0.59256877     -4.91873349
  H     -4.68054882      1.19538052     -2.60405086
  P      4.06367888      2.27363307     -1.36613233
  C      3.83236975      4.00998076     -1.85968164
  C      3.58961090      5.02419517     -0.93182979
  C      3.35401537      6.32236092     -1.35858013
  C      3.35558340      6.62389444     -2.71328997
  C      3.59178418      5.62107830     -3.64531653
  C      3.82079298      4.32135556     -3.22374025
  H      3.17389857      7.63967735     -3.04383932
  H      3.59386018      4.79838996      0.12841958
  H      4.00264043      3.54016227     -3.95467374
  H      3.59516611      5.85171294     -4.70430568
  C      5.63430063      1.80272439     -2.15355032
  C      5.82746490      0.46900207     -2.52014571
  C      7.02237268      0.04954106     -3.08197164
  C      8.04463592      0.96440327     -3.29453878
  C      7.86283801      2.29650334     -2.94743296
  C      6.66886001      2.71593414     -2.38149727
  H      6.53453588      3.75911574     -2.11921340
  H      8.98010896      0.64051735     -3.73502504
  H      8.65657818      3.01472408     -3.11706586
  H      5.02787742     -0.24798647     -2.36470093
  H      3.17208124      7.10218192     -0.62800198
  C      4.47012759      2.35269421      0.40868709
  C      3.41098000      2.30704098      1.31985728
  C      3.64873583      2.26593602      2.68380593
  C      4.95160913      2.28683082      3.16235703
  C      6.01152981      2.35659340      2.26920884
  C      5.77511439      2.38449005      0.90227399
  H      5.13913836      2.24991509      4.22908093
  H      7.03097664      2.38313632      2.63665615
  H      6.61270131      2.43097554      0.21587488
  H      7.15256101     -0.99162192     -3.35518790
  H      2.81364081      2.21566228      3.37309928
  H      2.39035915      2.30688768      0.95241170
  P     -0.49895542     -3.50230943     -1.16471146
  C      0.49435620     -4.92932993     -1.69894409
  C      0.38800244     -6.18440140     -1.09027069
  C      1.19230831     -7.23425836     -1.50508150
  C      2.11578649     -7.04777987     -2.52679988
  C      2.22888969     -5.80683784     -3.13832152
  C      1.42322251     -4.75681585     -2.72631597
  H      2.74622766     -7.86944889     -2.84551351
  H     -0.32017248     -6.33312065     -0.28287280
  H      1.51581488     -3.78678733     -3.20200178
  H      2.94888800     -5.65326106     -3.93407634
  C     -2.22100644     -3.91460416     -1.59228453
  C     -3.22273665     -2.98922102     -1.28114591
  C     -4.54987506     -3.26179272     -1.56944905
  C     -4.89576827     -4.44635514     -2.20615468
  C     -3.90581214     -5.35532112     -2.55316559
  C     -2.57849053     -5.09472617     -2.24741424
  H     -1.81688280     -5.81657401     -2.51800227
  H     -5.93416906     -4.65655376     -2.43349622
  H     -4.16706259     -6.27644711     -3.06090869
  H     -2.96021523     -2.04698285     -0.81074632
  H      1.10027080     -8.20256938     -1.02711150
  C     -0.42205168     -3.64571062      0.65214461
  C      0.84019659     -3.81637953      1.23151631
  C      1.00737136     -3.77489182      2.60545320
  C     -0.08879222     -3.55464799      3.43073303
  C     -1.34865654     -3.39822731      2.86846885
  C     -1.51577963     -3.43967873      1.49216857
  H      0.03697699     -3.51694025      4.50622116
  H     -2.21009416     -3.24185315      3.50721144
  H     -2.50851215     -3.31700587      1.07582610
  H     -5.31552119     -2.54428213     -1.30026223
  H      1.99437440     -3.91033078      3.03237684
  H      1.70059314     -3.99048863      0.59457654
  P      4.97489415     -3.42933595     -0.28540312
  C      6.52576774     -2.68718253      0.30235494
  C      7.62833164     -3.47303359      0.65293623
  C      8.80934934     -2.87755369      1.06389735
  C      8.90895413     -1.49354970      1.12626127
  C      7.81964817     -0.70560279      0.78324159
  C      6.63404326     -1.29774479      0.37672949
  H      9.83572275     -1.03008303      1.44323046
  H      7.55890173     -4.55380056      0.60349599
  H      5.78277278     -0.67816251      0.11332333
  H      7.89241302      0.37459848      0.83131117
  C      5.45198087     -4.39100440     -1.75093207
  C      5.20740784     -3.83204263     -3.00752514
  C      5.55563540     -4.51006509     -4.16487628
  C      6.15273912     -5.76113614     -4.08111361
  C      6.40011198     -6.32751631     -2.83775574
  C      6.05477712     -5.64975585     -1.67887963
  H      6.24802701     -6.10398713     -0.71383436
  H      6.42309954     -6.29476832     -4.98454023
  H      6.86482883     -7.30415919     -2.76862061
  H      4.73241717     -2.85818125     -3.07355500
  H      9.65690076     -3.49646533      1.33430941
  C      4.52652925     -4.66324001      0.96534144
  C      4.82313471     -4.46311877      2.31582251
  C      4.37164018     -5.35961822      3.27289440
  C      3.60979991     -6.45857238      2.89750133
  C      3.29699239     -6.65801106      1.55936332
  C      3.74532932     -5.76449282      0.59999541
  H      3.25925669     -7.15792987      3.64721426
  H      2.69923506     -7.51131410      1.25977938
  H      3.49657590     -5.92498085     -0.44327289
  H      5.35947558     -4.06188689     -5.13225342
  H      4.61756042     -5.19950195      4.31622608
  H      5.41537547     -3.60608018      2.61664478

