#B3LYP/6-31+G(d) OPT FREQ

246, Energy =   -372.45721577 au

0 1
 Au      0.10016731      0.63007952     -1.78757804
 Au     -0.43875272      1.15840453      1.04176731
 Au      1.91769872      2.48784966     -0.97654039
 Au      0.66032832      2.81293991     -3.21419278
 Au      0.12859029      0.13555796      3.49000767
 Au     -1.57360401     -1.23267486     -0.72984030
 Au      0.63954280     -1.19973467      1.23006155
 Au      0.84646618     -2.00245938     -1.58695802
  P     -3.79539938     -1.91732817     -0.18673227
  C     -4.93794104     -0.71452312      0.56574501
  C     -6.30572262     -0.68198955      0.28498950
  C     -7.12583063      0.25376789      0.89665334
  C     -6.59443416      1.16731256      1.79614493
  C     -5.23456222      1.15028145      2.07575975
  C     -4.41142100      0.22116339      1.45932591
  H     -7.23666422      1.89777710      2.27371567
  H     -6.73088403     -1.38935780     -0.41758501
  H     -3.34477845      0.22208687      1.66319398
  H     -4.81359301      1.87045697      2.76788933
  C     -3.86905977     -3.36332941      0.91596500
  C     -2.95137285     -4.39134579      0.68007035
  C     -2.96801202     -5.54404260      1.44689615
  C     -3.89728097     -5.68134030      2.47029898
  C     -4.80154840     -4.65945364      2.72584457
  C     -4.79058231     -3.50637956      1.95420354
  H     -5.50606705     -2.71741219      2.15574322
  H     -3.91183547     -6.58223468      3.07220249
  H     -5.52485425     -4.76117758      3.52664461
  H     -2.22468989     -4.28201472     -0.11868570
  H     -8.18523866      0.26844513      0.66874516
  C     -4.66184494     -2.50928994     -1.67230455
  C     -4.29694820     -1.97742859     -2.91139266
  C     -4.92693704     -2.39779250     -4.07192045
  C     -5.92505271     -3.36088117     -4.01275894
  C     -6.28933475     -3.90371962     -2.78820059
  C     -5.66340948     -3.48343337     -1.62487345
  H     -6.41426064     -3.69173730     -4.92125386
  H     -7.06362449     -4.66030501     -2.73751998
  H     -5.94670752     -3.92082857     -0.67419141
  H     -2.25286815     -6.33428272      1.24921591
  H     -4.63663925     -1.97483092     -5.02669263
  H     -3.50816692     -1.23375130     -2.96294961
  P      3.68599431      2.36903117      0.61518820
  C      4.82957836      3.77750650      0.58616244
  C      5.74620153      4.03563288      1.61073248
  C      6.59741826      5.12626919      1.52861745
  C      6.54686803      5.97204202      0.42840267
  C      5.64009136      5.72618762     -0.59363184
  C      4.78648924      4.63746560     -0.51403890
  H      7.21273454      6.82482775      0.36970252
  H      5.78630048      3.38409045      2.47632713
  H      4.07419579      4.44652723     -1.31031015
  H      5.59509675      6.38549171     -1.45267739
  C      4.70207841      0.92591474      0.16353178
  C      4.03036602     -0.23687268     -0.22108198
  C      4.72731285     -1.35177517     -0.65587287
  C      6.11452692     -1.32457838     -0.70932528
  C      6.79454338     -0.17794368     -0.32309931
  C      6.09627578      0.94164432      0.10522197
  H      6.64005235      1.83508206      0.38950905
  H      6.66159535     -2.19248319     -1.05826682
  H      7.87720695     -0.15048175     -0.36405858
  H      2.94618921     -0.26026473     -0.18938412
  H      7.30322379      5.31718976      2.32865616
  C      3.34759316      2.13577179      2.38943889
  C      2.93220245      3.24572800      3.13229924
  C      2.64613786      3.12428630      4.48163714
  C      2.74911883      1.88753734      5.10439118
  C      3.12109956      0.76973605      4.36876410
  C      3.42114089      0.89167504      3.01791130
  H      2.54058552      1.79669796      6.16338678
  H      3.20430573     -0.19672652      4.85220763
  H      3.73363692      0.01676323      2.45900216
  H      4.18283441     -2.23402261     -0.97404697
  H      2.34899532      3.99679731      5.05176235
  H      2.85437153      4.21472090      2.65076617
  P      2.17160680     -2.76319794     -3.45384891
  C      2.87918411     -4.42573789     -3.68142548
  C      2.23948588     -5.41725386     -4.42804529
  C      2.79038572     -6.68626733     -4.52562018
  C      3.98022882     -6.98453964     -3.87596812
  C      4.61799000     -6.00906516     -3.11947095
  C      4.06889905     -4.74178778     -3.01598324
  H      4.41101268     -7.97529217     -3.95824466
  H      1.31287159     -5.19389762     -4.94412331
  H      4.56960974     -3.98562726     -2.42053818
  H      5.54512081     -6.23711478     -2.60644633
  C      3.49831516     -1.62681438     -3.96702150
  C      3.48070959     -0.32382196     -3.46633637
  C      4.45319304      0.59398770     -3.82716370
  C      5.46587182      0.21911650     -4.70032560
  C      5.49697589     -1.07421686     -5.20573657
  C      4.52353076     -1.99304965     -4.84335825
  H      4.56033621     -3.00048616     -5.24134161
  H      6.23207850      0.93154355     -4.98209932
  H      6.28630200     -1.37122828     -5.88633940
  H      2.69636462     -0.02953701     -2.77847025
  H      2.28789477     -7.44413767     -5.11530964
  C      0.92877886     -2.59955427     -4.77536420
  C     -0.34975085     -3.10838003     -4.52230280
  C     -1.36853225     -2.96191567     -5.44885369
  C     -1.12907488     -2.29199182     -6.64183833
  C      0.13294195     -1.77488524     -6.90088334
  C      1.15599181     -1.92747092     -5.97637075
  H     -1.92490735     -2.17359232     -7.36783615
  H      0.32525356     -1.24952095     -7.82959059
  H      2.13510994     -1.51478677     -6.19039602
  H      4.42361501      1.59783013     -3.41796510
  H     -2.35218443     -3.36520118     -5.23621873
  H     -0.54284049     -3.62160252     -3.58592008
  P     -1.72689516      3.14788315      0.65460806
  C     -3.28187796      2.94943866     -0.27968001
  C     -4.44218099      3.66780033      0.01908483
  C     -5.61130477      3.44210017     -0.69142477
  C     -5.64411713      2.49522872     -1.70565162
  C     -4.49600353      1.77931654     -2.01628163
  C     -3.32755930      2.00782431     -1.30984191
  H     -6.56250232      2.31211581     -2.25081831
  H     -4.43364521      4.40371486      0.81470174
  H     -2.43489667      1.44321508     -1.55687477
  H     -4.51119420      1.03882719     -2.80767834
  C     -0.82317978      4.43222095     -0.26344783
  C      0.37919918      4.89844492      0.28132132
  C      1.17464873      5.79188034     -0.42076428
  C      0.78723338      6.22406308     -1.68299617
  C     -0.39944331      5.76233927     -2.23632532
  C     -1.19867659      4.86790605     -1.53522988
  H     -2.12264148      4.51537996     -1.97824867
  H      1.40923274      6.91936745     -2.23407285
  H     -0.71065118      6.10193771     -3.21730701
  H      0.68300405      4.56521841      1.26792309
  H     -6.50399145      4.00519421     -0.44519667
  C     -2.25068019      3.97203032      2.18838795
  C     -2.54530906      3.16647847      3.29148847
  C     -3.00535765      3.72396855      4.47381317
  C     -3.15468980      5.10076949      4.57733651
  C     -2.84336182      5.91353584      3.49575319
  C     -2.39982179      5.35620411      2.30569109
  H     -3.50870407      5.53936841      5.50279051
  H     -2.95153601      6.98891238      3.57614657
  H     -2.16345599      5.99779148      1.46451437
  H      2.09945061      6.14812057      0.01809870
  H     -3.23782299      3.08333224      5.31666640
  H     -2.40448422      2.09331126      3.22028140
  P     -0.44363908      0.00320502      5.79710499
  C     -0.47255770      1.58213895      6.70090290
  C     -0.64513244      1.66542278      8.08552646
  C     -0.68220688      2.90042297      8.71308288
  C     -0.55086165      4.06750119      7.97170946
  C     -0.38069437      3.99711612      6.59616432
  C     -0.34148965      2.76246841      5.96664163
  H     -0.58029774      5.03101863      8.46658824
  H     -0.74837218      0.76099841      8.67410490
  H     -0.20525234      2.70762507      4.89160641
  H     -0.28071561      4.90363869      6.01008184
  C      0.50255991     -1.13645349      6.85182272
  C      0.23032516     -2.50715657      6.78839467
  C      1.00029070     -3.41557219      7.49723936
  C      2.06323791     -2.97117014      8.27334315
  C      2.34877508     -1.61375316      8.33759777
  C      1.57906230     -0.70304732      7.62932382
  H      1.80977585      0.35421456      7.69328273
  H      2.66436532     -3.68042344      8.82970153
  H      3.17400157     -1.26001481      8.94465075
  H     -0.59958498     -2.86122606      6.18724845
  H     -0.81460393      2.95186938      9.78747111
  C     -2.15350918     -0.60984979      5.94263805
  C     -2.95931289     -0.60782391      4.80314305
  C     -4.26839723     -1.06062089      4.85570040
  C     -4.79236330     -1.52572126      6.05383160
  C     -4.00161404     -1.53360622      7.19553591
  C     -2.69319938     -1.07958515      7.14340705
  H     -5.81448994     -1.88301158      6.09736519
  H     -4.40614102     -1.89703935      8.13303234
  H     -2.08432557     -1.09727419      8.04005490
  H      0.76813726     -4.47311963      7.44226222
  H     -4.87771864     -1.04909106      3.95899376
  H     -2.54870324     -0.25367879      3.86369253
  P      1.42735303     -3.36290978      1.93523055
  C      2.91320718     -3.13024958      2.95521218
  C      2.84470041     -3.03344155      4.34649344
  C      3.97342645     -2.71441652      5.08715023
  C      5.18366153     -2.47335086      4.45086557
  C      5.26139159     -2.55266717      3.06653833
  C      4.13554046     -2.87398438      2.32562622
  H      6.06276572     -2.22073996      5.03164274
  H      1.90438600     -3.20997436      4.85603584
  H      4.20162176     -2.92683420      1.24500314
  H      6.20054026     -2.36072740      2.56019872
  C      1.80412283     -4.75612486      0.81788653
  C      0.91464490     -4.99781589     -0.23256397
  C      1.10906100     -6.06076719     -1.09880081
  C      2.19942477     -6.90301885     -0.92404802
  C      3.09293218     -6.67078923      0.11188287
  C      2.89888851     -5.60671550      0.98073656
  H      3.60125994     -5.44015038      1.78899259
  H      2.35422296     -7.73640479     -1.59887729
  H      3.94731150     -7.32307697      0.24818132
  H      0.05033240     -4.35370637     -0.35872024
  H      3.90417120     -2.65513310      6.16752320
  C      0.23243668     -4.10897465      3.09238907
  C     -0.96793977     -3.45529968      3.37021003
  C     -1.87140646     -3.98698994      4.27831871
  C     -1.59176992     -5.19022357      4.91192222
  C     -0.40829538     -5.86081070      4.62958036
  C      0.49723076     -5.32719101      3.72689346
  H     -2.29713227     -5.60652327      5.62133470
  H     -0.18911129     -6.80376082      5.11671640
  H      1.41949688     -5.85587721      3.51256066
  H      0.40946141     -6.23277498     -1.90861549
  H     -2.79890401     -3.46432515      4.48193799
  H     -1.19711627     -2.52078752      2.87089031
  P     -0.17340833      3.16434320     -5.41643779
  C     -0.23558441      4.84289975     -6.11546893
  C     -1.13709907      5.22904286     -7.11064810
  C     -1.11110592      6.52067597     -7.61332670
  C     -0.18740536      7.44013507     -7.13458412
  C      0.71552497      7.06569926     -6.14869581
  C      0.69096791      5.77600564     -5.64166576
  H     -0.17133546      8.44886212     -7.53006301
  H     -1.86291171      4.51910959     -7.49075266
  H      1.39775885      5.48205888     -4.87197995
  H      1.43952595      7.77921394     -5.77242225
  C     -1.87206943      2.53404648     -5.55259330
  C     -2.11754542      1.20258336     -5.89587267
  C     -3.41043704      0.70383448     -5.89758215
  C     -4.47560074      1.51873127     -5.53863485
  C     -4.23985285      2.83685274     -5.16802096
  C     -2.94831375      3.33904494     -5.16715656
  H     -2.77166761      4.36779703     -4.87204260
  H     -5.48667465      1.12874046     -5.54856331
  H     -5.06586859      3.47608433     -4.87819041
  H     -1.29271679      0.55441013     -6.17176618
  H     -1.81617679      6.80975655     -8.38405687
  C      0.75752198      2.21398169     -6.66019860
  C      1.98489677      1.65871541     -6.29562898
  C      2.74426418      0.95130297     -7.21526525
  C      2.28092403      0.78343036     -8.51304784
  C      1.05937975      1.32991906     -8.88777352
  C      0.30418025      2.04504004     -7.97192111
  H      2.87231005      0.23096873     -9.23368533
  H      0.69686333      1.20407768     -9.90133404
  H     -0.64398717      2.47465231     -8.27522071
  H     -3.58577306     -0.32625659     -6.18700450
  H      3.70107764      0.53630570     -6.91854085
  H      2.34619060      1.78264432     -5.27989398

