246
Energy =   -372.44181008 au
 Au     -3.33560187      0.58603031      0.00975216
 Au     -1.42931835      2.41386252     -0.17068722
 Au      3.56910273      1.07576576     -1.19829668
 Au      1.61142344     -0.61206008     -0.54437234
 Au      4.16402864     -1.38301159     -0.67143511
 Au     -1.03842850     -0.07613183     -1.38701754
 Au     -0.17540019     -2.51325834     -0.13757975
 Au     -0.72715677     -0.02536062      1.20306381
  P      4.38754214      3.23331576     -1.83875049
  C      3.35683393      4.62530827     -2.40953672
  C      3.24113050      5.82780285     -1.71227991
  C      2.45520887      6.85719228     -2.20947857
  C      1.76896245      6.69772735     -3.40399899
  C      1.85210035      5.49374924     -4.09261005
  C      2.63364609      4.46414651     -3.59644244
  H      1.16694000      7.50812579     -3.79763897
  H      3.77794622      5.96773299     -0.78122116
  H      2.70382885      3.53016796     -4.14405577
  H      1.31195794      5.35988611     -5.02305280
  C      5.57586706      3.03319431     -3.20485575
  C      6.23918399      1.80721059     -3.30943911
  C      7.16968461      1.58655569     -4.31165451
  C      7.45045903      2.59011866     -5.22931575
  C      6.79779882      3.81163168     -5.13764256
  C      5.86741522      4.03486133     -4.13395588
  H      5.36083917      4.99140238     -4.07768310
  H      8.17565952      2.41904207     -6.01609563
  H      7.01311354      4.59774212     -5.85210735
  H      6.01957219      1.02140032     -2.59371603
  H      2.38862280      7.79215924     -1.66488645
  C      5.42278120      3.93388303     -0.51602931
  C      5.40073054      3.32741595      0.74055870
  C      6.18592731      3.81206870      1.77564181
  C      7.00740566      4.91103665      1.56593828
  C      7.04669695      5.51708402      0.31655039
  C      6.26427040      5.03222707     -0.71900575
  H      7.62249150      5.29091033      2.37317973
  H      7.69407007      6.36962839      0.14717865
  H      6.31036349      5.50315094     -1.69470908
  H      7.67375727      0.62917823     -4.37811920
  H      6.15872629      3.32789700      2.74537405
  H      4.76100396      2.46618960      0.90445978
  P     -0.14266031      0.05330504      3.50993158
  C     -0.45044220     -1.49880151      4.40897671
  C      0.48375859     -2.11466577      5.24343626
  C      0.16054243     -3.28980250      5.90713038
  C     -1.09273495     -3.86430185      5.74663803
  C     -2.02826216     -3.26178631      4.91464564
  C     -1.70702226     -2.08902258      4.25144668
  H     -1.34217079     -4.77907788      6.27122742
  H      1.46463315     -1.67314844      5.37640853
  H     -2.43845953     -1.61605335      3.60499102
  H     -3.01032413     -3.70229219      4.78507971
  C     -0.91102370      1.30571887      4.58488679
  C     -1.44418839      2.46164888      4.01128697
  C     -2.04931058      3.42542328      4.80193072
  C     -2.13875225      3.24429160      6.17518891
  C     -1.61686657      2.09652488      6.75665799
  C     -1.00649153      1.13318804      5.96922355
  H     -0.60332261      0.23848640      6.42993397
  H     -2.61829078      3.99615273      6.79085405
  H     -1.68564621      1.94943578      7.82816026
  H     -1.38774881      2.60288313      2.93610723
  H      0.89068346     -3.75490319      6.55936131
  C      1.64815041      0.33113710      3.66979355
  C      2.50256381     -0.50959412      2.94887000
  C      3.87132248     -0.30219170      2.95551515
  C      4.41144500      0.75121403      3.68162721
  C      3.57413292      1.59142161      4.40270789
  C      2.20072177      1.38772913      4.39450845
  H      5.48276928      0.91408118      3.68772842
  H      3.99094936      2.40846711      4.98021722
  H      1.55645220      2.05326654      4.95736760
  H     -2.45861153      4.31852800      4.34615965
  H      4.51836023     -0.96656212      2.39362826
  H      2.08794036     -1.33686665      2.38310939
  P      4.81979280     -3.59276561     -0.15510250
  C      6.51321534     -4.23956713     -0.27021517
  C      6.97701263     -5.32633612      0.47839316
  C      8.27534808     -5.78360770      0.31475503
  C      9.12580040     -5.16689723     -0.59318410
  C      8.67678721     -4.08527906     -1.33849848
  C      7.38007762     -3.62347073     -1.17705174
  H     10.14007132     -5.52766052     -0.71694852
  H      6.32451483     -5.81081177      1.19601393
  H      7.03088000     -2.77466755     -1.75646423
  H      9.33841112     -3.59815509     -2.04537073
  C      3.79593665     -4.79422054     -1.07204912
  C      2.71829141     -4.31829383     -1.82112431
  C      1.90769362     -5.18666555     -2.53503632
  C      2.16473377     -6.55068702     -2.51530992
  C      3.23918729     -7.03733706     -1.78100098
  C      4.04864201     -6.16810223     -1.06580642
  H      4.88649594     -6.56272246     -0.50308380
  H      1.53330086     -7.23093218     -3.07498578
  H      3.44983768     -8.10036246     -1.76715382
  H      2.51850802     -3.25330692     -1.85156505
  H      8.62403729     -6.62607710      0.90074987
  C      4.30875138     -3.84019956      1.57270344
  C      5.21419826     -3.69811369      2.62744948
  C      4.77779910     -3.75411607      3.94279978
  C      3.43007438     -3.92648038      4.22402882
  C      2.51610815     -4.03426323      3.18391431
  C      2.95157771     -3.99091642      1.86940078
  H      3.09075591     -3.97090893      5.25221662
  H      1.46002220     -4.15205953      3.39822665
  H      2.23133117     -4.07812543      1.06221666
  H      1.07480613     -4.79694381     -3.10908619
  H      5.49385931     -3.65643104      4.75047910
  H      6.26699516     -3.54544906      2.41911430
  P     -0.98439212      4.70016298      0.23918779
  C     -1.24592836      5.82669371     -1.16426123
  C     -1.57672854      7.17559881     -1.00645577
  C     -1.80838182      7.97478102     -2.11491347
  C     -1.72808017      7.43781822     -3.39298875
  C     -1.41121243      6.09641217     -3.55993731
  C     -1.16998970      5.29646287     -2.45403417
  H     -1.92004579      8.06182467     -4.25778304
  H     -1.66898043      7.59841232     -0.01248831
  H     -0.92588447      4.24730654     -2.58890867
  H     -1.35336707      5.66956681     -4.55461185
  C      0.64250638      5.09740587      0.94803109
  C      1.33650069      4.06015158      1.57663711
  C      2.56438523      4.29202615      2.17320134
  C      3.12104566      5.56365252      2.14662142
  C      2.44628588      6.60003592      1.51577328
  C      1.21589277      6.37035674      0.91697867
  H      0.70459388      7.18297977      0.41423456
  H      4.08371029      5.74342485      2.61080198
  H      2.87817085      7.59367543      1.48986266
  H      0.90659816      3.06337864      1.59606774
  H     -2.06179560      9.01972135     -1.97932591
  C     -2.18164134      5.30323390      1.47167747
  C     -3.44981606      4.71606416      1.47334150
  C     -4.42705191      5.13438682      2.36093211
  C     -4.14974893      6.15233870      3.26447503
  C     -2.89063067      6.73857701      3.27957859
  C     -1.90986393      6.31640399      2.39335403
  H     -4.91196684      6.48446975      3.95930555
  H     -2.66851521      7.52922991      3.98672610
  H     -0.92706007      6.77265245      2.42472332
  H      3.08761215      3.47753960      2.66060998
  H     -5.40329099      4.66247790      2.34980585
  H     -3.66779754      3.91975843      0.76933991
  P     -0.91065403     -0.16395185     -3.76535831
  C      0.81178769     -0.50758444     -4.22685918
  C      1.27841507     -1.81687821     -4.36631524
  C      2.63202831     -2.06996044     -4.53319147
  C      3.54158181     -1.02141985     -4.55451995
  C      3.09077187      0.28493271     -4.41042210
  C      1.73910347      0.53950370     -4.23665376
  H      4.59908100     -1.21921628     -4.68423622
  H      0.57627029     -2.64325621     -4.34318602
  H      1.39709221      1.56068841     -4.10791850
  H      3.79432750      1.10869139     -4.43802151
  C     -1.37138150      1.31999418     -4.71949585
  C     -2.38167701      2.13807735     -4.20841405
  C     -2.81831664      3.24807978     -4.91402888
  C     -2.23986581      3.56318429     -6.13698273
  C     -1.22790284      2.76263360     -6.64977662
  C     -0.79879656      1.64423442     -5.95176097
  H     -0.01596821      1.01987302     -6.36706229
  H     -2.58148529      4.42875538     -6.69228037
  H     -0.77414294      3.00560220     -7.60358488
  H     -2.83226271      1.89698996     -3.25068148
  H      2.97740063     -3.09112753     -4.64671096
  C     -1.91160446     -1.46862909     -4.54279723
  C     -2.95876845     -2.02268383     -3.80302896
  C     -3.78677883     -2.98440524     -4.36101985
  C     -3.57332377     -3.40854737     -5.66594948
  C     -2.53326896     -2.86537320     -6.41028043
  C     -1.70914156     -1.89811892     -5.85704194
  H     -4.21944974     -4.15977499     -6.10455455
  H     -2.36680524     -3.19378515     -7.42957831
  H     -0.90545793     -1.47179677     -6.44695242
  H     -3.61060929      3.86699202     -4.50851676
  H     -4.59673757     -3.40442000     -3.77548250
  H     -3.12503585     -1.69083704     -2.78297555
  P     -5.62398247      0.49465656      0.62864672
  C     -6.54981948     -1.06988559      0.56112373
  C     -7.54344447     -1.41534870      1.47989211
  C     -8.21505764     -2.62291989      1.35884547
  C     -7.90305705     -3.49671293      0.32559870
  C     -6.91143079     -3.16457120     -0.58848111
  C     -6.23663054     -1.96067941     -0.46973574
  H     -8.43010011     -4.43917259      0.23498902
  H     -7.78709289     -0.74006648      2.29225020
  H     -5.45471093     -1.70462596     -1.17805869
  H     -6.65988571     -3.84687818     -1.39244049
  C     -6.64121702      1.66119720     -0.32347886
  C     -5.99913915      2.73321137     -0.94838942
  C     -6.72157232      3.66698304     -1.67281812
  C     -8.09912801      3.53725349     -1.78985680
  C     -8.74771992      2.47012445     -1.18319896
  C     -8.02691067      1.53591204     -0.45519546
  H     -8.54106609      0.70163860      0.00854766
  H     -8.66597900      4.26468563     -2.35884128
  H     -9.82199179      2.36263153     -1.27800219
  H     -4.92093659      2.82918275     -0.86683657
  H     -8.98677986     -2.88142603      2.07452721
  C     -5.75881654      1.07822396      2.34718461
  C     -4.75560442      0.68810836      3.23896921
  C     -4.76306268      1.12694052      4.55239997
  C     -5.76642124      1.98116697      4.99069767
  C     -6.76176073      2.38631244      4.11200979
  C     -6.76165931      1.93840330      2.79896753
  H     -5.76871437      2.33425289      6.01524356
  H     -7.54455652      3.05567637      4.44944962
  H     -7.54204126      2.26336758      2.12040321
  H     -6.20775164      4.49367443     -2.15022213
  H     -3.98020624      0.80953553      5.23196074
  H     -3.95730217      0.03951004      2.89205915
  P     -1.19274790     -4.64707453      0.26779911
  C     -0.28700360     -5.75427992      1.39111639
  C     -0.59588961     -5.83262594      2.75112942
  C      0.17002714     -6.61573967      3.60232319
  C      1.26251585     -7.31916991      3.11335211
  C      1.58896189     -7.23517940      1.76632493
  C      0.82445858     -6.45607703      0.91301554
  H      1.85953414     -7.92889320      3.78103890
  H     -1.44342932     -5.28362870      3.14576404
  H      1.08365924     -6.39716082     -0.13782122
  H      2.44403506     -7.77563326      1.37642438
  C     -1.43414196     -5.64797760     -1.23197020
  C     -1.52835086     -4.97642936     -2.45363063
  C     -1.68010199     -5.67990800     -3.63823957
  C     -1.74001069     -7.06682236     -3.61891688
  C     -1.65167449     -7.74530192     -2.41086700
  C     -1.49893669     -7.04393100     -1.22472664
  H     -1.41796080     -7.58592398     -0.28957622
  H     -1.85239101     -7.61814205     -4.54497368
  H     -1.69768036     -8.82791500     -2.39086892
  H     -1.47658684     -3.89235989     -2.47154080
  H     -0.08859948     -6.67378350      4.65345690
  C     -2.84115825     -4.54324718      1.03874396
  C     -3.30266909     -3.30145222      1.47510750
  C     -4.50977367     -3.19053056      2.14757013
  C     -5.28443490     -4.31936105      2.37294158
  C     -4.85062646     -5.55718992      1.91631347
  C     -3.63634008     -5.67156246      1.25899140
  H     -6.22821347     -4.23295998      2.89837212
  H     -5.45746107     -6.43978116      2.08151147
  H     -3.29931194     -6.64395321      0.91840361
  H     -1.74736481     -5.14456253     -4.57838628
  H     -4.84705109     -2.22048111      2.49442539
  H     -2.70255923     -2.41615854      1.29258794
