246
Energy =   -372.44696504 au
 Au     -0.70777889      3.45212400      0.78703588
 Au     -0.43552492      2.58505340      3.19342240
 Au      1.07818081      1.15421885      1.13458371
 Au      0.47932715     -2.46925415     -2.59504710
 Au      0.26615676     -1.49752692      1.53266051
 Au     -0.45590088     -0.19964160     -3.52977688
 Au     -1.49131865      0.70321188      1.24573838
 Au     -0.10697533     -0.48352498     -0.94147809
  P      3.37305961      1.70193190      0.78897379
  C      3.71284345      3.48789585      0.78779467
  C      4.55216685      4.12823324      1.69935934
  C      4.68508484      5.50952034      1.67801954
  C      3.99266047      6.26672449      0.74441417
  C      3.15660012      5.63907179     -0.17116378
  C      3.00755408      4.26323049     -0.14022419
  H      4.10250521      7.34463616      0.72827524
  H      5.10917946      3.54855574      2.42622628
  H      2.34355441      3.77581408     -0.84679082
  H      2.61909346      6.22283307     -0.90994391
  C      3.93774151      1.13785247     -0.84944503
  C      3.49371840     -0.10689360     -1.30538020
  C      3.82510817     -0.55925220     -2.57224078
  C      4.61215182      0.22473525     -3.40597696
  C      5.07026908      1.45691850     -2.96033384
  C      4.73611429      1.91247702     -1.69342728
  H      5.09545694      2.87925833     -1.36092579
  H      4.86806048     -0.12543318     -4.39917686
  H      5.68913219      2.07094205     -3.60422948
  H      2.87814290     -0.72366498     -0.65997035
  H      5.33848125      5.99439358      2.39406435
  C      4.52840886      0.96131959      1.97841553
  C      4.32988228      1.23048398      3.33716099
  C      5.14512566      0.65168397      4.29614195
  C      6.15171554     -0.22651624      3.91500393
  C      6.34233673     -0.51749831      2.57126445
  C      5.53930277      0.07347807      1.60683753
  H      6.78528603     -0.68403823      4.66567749
  H      7.12558317     -1.20329604      2.26939455
  H      5.70123131     -0.15458974      0.55958021
  H      3.46301272     -1.52369974     -2.91162725
  H      4.98912754      0.88046105      5.34403823
  H      3.52749860      1.89526320      3.64154103
  P     -1.06910489      4.59712404     -1.26844417
  C     -2.73775188      4.32917508     -1.94049744
  C     -3.04164960      4.36790065     -3.30233950
  C     -4.34702708      4.18001713     -3.73343867
  C     -5.36138652      3.94554003     -2.81479815
  C     -5.06845983      3.89788774     -1.45859183
  C     -3.76611325      4.08696881     -1.02549316
  H     -6.37874988      3.79587996     -3.15649483
  H     -2.25311878      4.54097595     -4.02597482
  H     -3.53721369      4.04419879      0.03439355
  H     -5.85435671      3.70919698     -0.73606363
  C      0.07407953      4.12039712     -2.60761873
  C      0.64255400      2.84630264     -2.54339788
  C      1.57442257      2.43162427     -3.48117157
  C      1.96087746      3.29264989     -4.49913789
  C      1.40582741      4.56258200     -4.57382194
  C      0.47059183      4.97645545     -3.63681412
  H      0.05816302      5.97701664     -3.69810088
  H      2.69913561      2.97614242     -5.22652528
  H      1.70620131      5.23911122     -5.36545597
  H      0.36135409      2.17982468     -1.73592332
  H     -4.57408899      4.21936354     -4.79257723
  C     -0.91541292      6.40637276     -1.18632080
  C     -1.57628971      7.27773118     -2.05601229
  C     -1.39215569      8.64746345     -1.94619155
  C     -0.55153823      9.16462467     -0.96971284
  C      0.09962305      8.30843762     -0.09193254
  C     -0.08518810      6.93914578     -0.19655230
  H     -0.41027907     10.23583989     -0.88776518
  H      0.74852368      8.70734120      0.67923174
  H      0.41279743      6.27004460      0.49791142
  H      2.01508708      1.44506062     -3.40121389
  H     -1.91043598      9.31393095     -2.62578086
  H     -2.24486610      6.88427365     -2.81352503
  P     -0.81308963      0.37816613     -5.82643323
  C     -0.78856956      2.06615061     -6.51461748
  C      0.32249895      2.57311659     -7.19159762
  C      0.32355498      3.87659732     -7.66596572
  C     -0.77966958      4.69420219     -7.46544627
  C     -1.88764956      4.20334427     -6.78668860
  C     -1.89065962      2.90227730     -6.30924162
  H     -0.77923316      5.71060113     -7.84094757
  H      1.18784907      1.94215708     -7.35886370
  H     -2.76165354      2.52188365     -5.78626031
  H     -2.75628885      4.83433585     -6.63711457
  C     -2.35912670     -0.33380992     -6.46505541
  C     -2.92269440     -1.39972749     -5.75891008
  C     -4.09273873     -2.00038832     -6.19493779
  C     -4.72119417     -1.53985410     -7.34453306
  C     -4.17370863     -0.47942409     -8.05353638
  C     -3.00147829      0.12101498     -7.62022087
  H     -2.58721158      0.95249448     -8.17862343
  H     -5.63836822     -2.00555793     -7.68526517
  H     -4.66175322     -0.11610023     -8.95044001
  H     -2.43762732     -1.75528768     -4.85537391
  H      1.18935294      4.25181898     -8.19924488
  C      0.48941383     -0.47011409     -6.77813483
  C      1.72415207     -0.68788936     -6.16216772
  C      2.75857387     -1.30705661     -6.84568292
  C      2.57124661     -1.72251455     -8.15727736
  C      1.34451376     -1.52257200     -8.77676619
  C      0.31028363     -0.90090469     -8.09480864
  H      3.38088615     -2.19990317     -8.69660243
  H      1.19298475     -1.85031720     -9.79863472
  H     -0.64330964     -0.74963989     -8.58790688
  H     -4.51613503     -2.82612447     -5.63456276
  H      3.71107207     -1.46691912     -6.35297782
  H      1.87351952     -0.36414030     -5.13739665
  P      1.31019839     -4.65777254     -2.65509801
  C      2.27165640     -5.07952034     -1.16920440
  C      2.04338254     -6.20872373     -0.38279931
  C      2.80682837     -6.43893529      0.75242984
  C      3.80459338     -5.54753447      1.11870059
  C      4.03632505     -4.41504024      0.34722962
  C      3.27065068     -4.18039812     -0.78244608
  H      4.39935776     -5.73108118      2.00581575
  H      1.26540831     -6.91211272     -0.65634838
  H      3.44949339     -3.29293491     -1.38019189
  H      4.81697077     -3.71548874      0.62434463
  C      2.41951485     -5.05434371     -4.03828287
  C      2.09761884     -4.53106726     -5.29382406
  C      2.88065360     -4.82334972     -6.39825222
  C      4.00352127     -5.62897846     -6.26064382
  C      4.33926432     -6.14149822     -5.01522974
  C      3.55272885     -5.85975294     -3.90835537
  H      3.82116866     -6.26422300     -2.93916083
  H      4.61793616     -5.85485488     -7.12417757
  H      5.21709262     -6.76725035     -4.90339387
  H      1.22675615     -3.89177035     -5.40022820
  H      2.61946955     -7.32129584      1.35339848
  C      0.00239215     -5.91127002     -2.77312083
  C     -1.32067483     -5.51436058     -2.56997923
  C     -2.35545896     -6.43393337     -2.65538363
  C     -2.07830463     -7.76293436     -2.94749627
  C     -0.76681359     -8.16705648     -3.16070417
  C      0.26842372     -7.24924468     -3.07908254
  H     -2.88565029     -8.48250616     -3.01559617
  H     -0.54929004     -9.20220683     -3.39665917
  H      1.28868028     -7.56783600     -3.26192050
  H      2.61520948     -4.41781711     -7.36786760
  H     -3.37842878     -6.11072555     -2.49979577
  H     -1.53612436     -4.47458455     -2.34508719
  P     -3.79177132      0.17360553      0.97820464
  C     -4.14489062     -1.54863165      1.45005770
  C     -4.63950163     -1.88489839      2.71101085
  C     -4.78507246     -3.21458333      3.07739192
  C     -4.44231000     -4.22598003      2.19170729
  C     -3.94754853     -3.90248002      0.93471279
  C     -3.78399766     -2.57576449      0.57146673
  H     -4.56014772     -5.26443155      2.47799767
  H     -4.91590032     -1.10333374      3.40986515
  H     -3.38176376     -2.33186391     -0.40635706
  H     -3.69070169     -4.68750483      0.23257577
  C     -4.28505601      0.22387567     -0.77190516
  C     -3.46454786      0.90176677     -1.67537416
  C     -3.76304001      0.92433268     -3.02834443
  C     -4.89404890      0.27299076     -3.50028311
  C     -5.72149976     -0.40157805     -2.61275833
  C     -5.42007888     -0.43137143     -1.25955293
  H     -6.06177895     -0.97828375     -0.57817049
  H     -5.12769513      0.28762727     -4.55829929
  H     -6.60476588     -0.91320453     -2.97705818
  H     -2.58440621      1.41964269     -1.31174098
  H     -5.16940364     -3.46008453      4.06068491
  C     -4.98952674      1.17584738      1.90671889
  C     -4.62046104      1.56595135      3.19829908
  C     -5.47004581      2.33913330      3.97196339
  C     -6.69323914      2.74957306      3.45856668
  C     -7.06133878      2.38325527      2.17113656
  C     -6.21789051      1.59965983      1.39760344
  H     -7.35666433      3.35984090      4.05991981
  H     -8.01235630      2.70801292      1.76520097
  H     -6.51633191      1.31743239      0.39445016
  H     -3.11483242      1.45988341     -3.71235257
  H     -5.17196166      2.62674821      4.97408282
  H     -3.65453017      1.26460418      3.59265380
  P      0.28436443     -3.29985361      3.09897318
  C     -0.07319005     -4.97164437      2.47286979
  C      0.35184531     -6.13712082      3.11572677
  C      0.00580240     -7.38239139      2.61274707
  C     -0.76762105     -7.48105004      1.46397031
  C     -1.18275414     -6.32860830      0.81027779
  C     -0.83143876     -5.08293621      1.30582629
  H     -1.04275236     -8.45423697      1.07489086
  H      0.96090699     -6.07175154      4.01002533
  H     -1.14818833     -4.18313963      0.78824324
  H     -1.78035711     -6.40100221     -0.09073460
  C     -1.03428378     -3.01802117      4.32291485
  C     -1.45649099     -1.70229391      4.52853502
  C     -2.49375800     -1.41633132      5.40020457
  C     -3.11839313     -2.44349604      6.09509141
  C     -2.70672737     -3.75557957      5.90313188
  C     -1.67872250     -4.04423094      5.01795915
  H     -1.38309916     -5.07497947      4.85873539
  H     -3.92915618     -2.22155395      6.77901579
  H     -3.19440200     -4.56144711      6.43916056
  H     -0.96958001     -0.89594447      3.99029594
  H      0.33874602     -8.27842729      3.12339687
  C      1.81318584     -3.52682108      4.05801197
  C      3.01764629     -3.23022415      3.41375980
  C      4.22933206     -3.41300835      4.06215286
  C      4.25146002     -3.88858220      5.36724508
  C      3.05971796     -4.16954990      6.02215416
  C      1.84587316     -3.98823896      5.37555957
  H      5.19748200     -4.03320204      5.87542078
  H      3.07391798     -4.53207434      7.04340518
  H      0.92012123     -4.19724827      5.89950257
  H     -2.81850422     -0.39054671      5.53280315
  H      5.15546401     -3.17606100      3.55087558
  H      2.99803202     -2.85131894      2.39699987
  P     -0.15475012      2.44838553      5.56033428
  C      0.67495503      3.97029335      6.11464828
  C      0.40191527      4.61588133      7.32161805
  C      1.10548967      5.75677266      7.67819211
  C      2.08981229      6.26338930      6.84102784
  C      2.36931503      5.62866476      5.63757085
  C      1.66474146      4.49244595      5.27666473
  H      2.63773962      7.15430122      7.12435340
  H     -0.36597408      4.22932443      7.98185713
  H      1.87987502      3.99878870      4.33354461
  H      3.13446849      6.02116340      4.97721323
  C      0.98443400      1.17947251      6.19761968
  C      1.59986842      0.31199613      5.29627547
  C      2.54385625     -0.60363167      5.73323469
  C      2.86888773     -0.68079977      7.07990471
  C      2.25728940      0.17337841      7.98826592
  C      1.33117183      1.10621522      7.55034985
  H      0.87945359      1.79065580      8.25976850
  H      3.60307753     -1.40273231      7.41832898
  H      2.51256953      0.12162139      9.04024578
  H      1.34473230      0.36367529      4.24222766
  H      0.88316800      6.25127617      8.61664550
  C     -1.65108510      2.33770367      6.58452175
  C     -2.59082100      3.36825780      6.46949696
  C     -3.78651307      3.31426669      7.16752569
  C     -4.07064395      2.22074150      7.97661306
  C     -3.15383544      1.18486747      8.08413125
  C     -1.95199378      1.23911598      7.39217759
  H     -5.00588084      2.17786691      8.52213270
  H     -3.37126753      0.32880505      8.71258007
  H     -1.24144089      0.42604753      7.48908508
  H      3.03411666     -1.24904601      5.01573395
  H     -4.49559838      4.12989722      7.08543314
  H     -2.37512222      4.21977597      5.83244754
