#B3LYP/6-31+G(d) OPT FREQ

246, Energy =   -372.44530786 au

0 1
 Au     -2.01378195      0.64575119     -3.41533639
 Au     -1.09399089      0.51343336     -0.69278211
 Au     -3.25298056      2.09398974     -1.57729078
 Au      0.03120716     -0.15955580      1.70957768
 Au      2.44310445     -1.77409916      1.23899068
 Au      1.61259250      0.61172656     -0.21150142
 Au      2.77947761      0.47171057      2.45236734
 Au     -3.58331210     -0.54829699     -1.58278258
  P     -0.70760877     -0.13657911     -5.23311386
  C      0.47712753      0.98455587     -6.03170811
  C      1.84325687      0.93264033     -5.74780844
  C      2.71189737      1.85943205     -6.30305250
  C      2.22845794      2.85085897     -7.14525987
  C      0.87000213      2.91662726     -7.42838550
  C     -0.00273216      1.99688370     -6.86969654
  H      2.90852193      3.57459731     -7.57868231
  H      2.22886688      0.16163857     -5.09077361
  H     -1.06399380      2.05803985     -7.08569367
  H      0.48799891      3.69080125     -8.08356265
  C     -1.68270127     -0.84650746     -6.59149872
  C     -2.93772889     -1.38036576     -6.28646568
  C     -3.70724341     -1.98320154     -7.26789025
  C     -3.23664133     -2.05269926     -8.57248213
  C     -1.99644853     -1.51602333     -8.89004256
  C     -1.22087642     -0.91770059     -7.90871932
  H     -0.25640176     -0.49659217     -8.16854804
  H     -3.83912757     -2.52002247     -9.34241413
  H     -1.62856625     -1.56279464     -9.90840096
  H     -3.31162003     -1.31883711     -5.26938903
  H      3.77017509      1.80616709     -6.07293636
  C      0.31620581     -1.54286765     -4.68557164
  C      0.48804734     -1.76761405     -3.32043139
  C      1.24490250     -2.83408866     -2.86377202
  C      1.83880519     -3.70226076     -3.76840748
  C      1.67373796     -3.49322946     -5.13218755
  C      0.91996085     -2.42286873     -5.58911615
  H      2.42283889     -4.54234753     -3.41083837
  H      2.13316678     -4.16881079     -5.84419073
  H      0.79596263     -2.27072948     -6.65528034
  H     -4.67754200     -2.39473958     -7.01446733
  H      1.36430964     -2.98583512     -1.79746778
  H      0.02644498     -1.09649083     -2.60578317
  P     -4.50491814     -2.71668038     -1.38869311
  C     -4.39085905     -3.63396978      0.18137985
  C     -5.36783706     -4.53780837      0.60492258
  C     -5.18524853     -5.27704934      1.76376326
  C     -4.02202232     -5.13458744      2.50682453
  C     -3.04780689     -4.23430199      2.09741375
  C     -3.23296491     -3.48130952      0.94850553
  H     -3.87532006     -5.71912608      3.40737473
  H     -6.27670598     -4.66368425      0.02826181
  H     -2.47797694     -2.76321073      0.64333710
  H     -2.14251153     -4.11499721      2.68076057
  C     -3.71680999     -3.87601914     -2.55351851
  C     -2.64976556     -3.45306885     -3.34545409
  C     -2.05398297     -4.31489292     -4.25343125
  C     -2.51200082     -5.61855896     -4.37564464
  C     -3.56225237     -6.05938833     -3.57950035
  C     -4.16004606     -5.19756438     -2.67425343
  H     -4.97949718     -5.54945774     -2.05751179
  H     -2.05056759     -6.29167282     -5.08851179
  H     -3.92050821     -7.07828386     -3.66805529
  H     -2.28276785     -2.43710431     -3.24815501
  H     -5.95316263     -5.97217774      2.08241853
  C     -6.26345274     -2.76111042     -1.83440033
  C     -7.20434253     -2.29214679     -0.91115351
  C     -8.54834725     -2.23714260     -1.24127800
  C     -8.97167462     -2.63424829     -2.50283019
  C     -8.04445098     -3.07979213     -3.43392457
  C     -6.69809451     -3.13810268     -3.10700308
  H    -10.02333158     -2.59238301     -2.76033171
  H     -8.36913072     -3.38461310     -4.42223268
  H     -5.98190996     -3.48433723     -3.84344184
  H     -1.23288567     -3.96599473     -4.86890230
  H     -9.26700824     -1.88085591     -0.51246194
  H     -6.87619334     -1.97383925      0.07274751
  P      2.74018338     -4.08126951      0.68115558
  C      4.28476328     -4.34338300     -0.24437996
  C      5.03984187     -5.51631005     -0.15616772
  C      6.21238185     -5.65068069     -0.88365477
  C      6.65037401     -4.61822818     -1.70222755
  C      5.91484965     -3.44399614     -1.78751155
  C      4.74186619     -3.30813616     -1.06239732
  H      7.56938154     -4.72509015     -2.26646650
  H      4.71455551     -6.32099859      0.49365113
  H      4.17297136     -2.38586340     -1.12119397
  H      6.25764634     -2.62881343     -2.41485629
  C      1.48612638     -5.03429643     -0.24474605
  C      0.14114216     -4.70633277     -0.05280727
  C     -0.85672790     -5.40054448     -0.71755721
  C     -0.52606606     -6.42647696     -1.59210515
  C      0.80624947     -6.75249235     -1.80227142
  C      1.80699844     -6.06246177     -1.13430280
  H      2.84426052     -6.32707831     -1.30439315
  H     -1.30766014     -6.96770176     -2.11231556
  H      1.06974369     -7.55008668     -2.48719399
  H     -0.11998433     -3.89799999      0.62291153
  H      6.78956752     -6.56480265     -0.80687645
  C      2.99288732     -5.07034461      2.18744091
  C      3.67184645     -4.46177178      3.24716338
  C      3.89936836     -5.14768142      4.42861466
  C      3.44455371     -6.45221177      4.57206131
  C      2.76315540     -7.06529238      3.52962834
  C      2.53656863     -6.38138215      2.34382378
  H      3.61909513     -6.98928355      5.49688823
  H      2.40489003     -8.08247028      3.63785611
  H      2.00081029     -6.86860993      1.53728461
  H     -1.89595819     -5.13912248     -0.55455587
  H      4.42845721     -4.66249210      5.24068115
  H      4.02005580     -3.43976117      3.13892778
  P      3.09890056      1.80867256     -1.65071098
  C      4.13353781      0.84767406     -2.80286073
  C      5.24460663      1.38512530     -3.45825509
  C      5.95390900      0.62313585     -4.37359809
  C      5.56282619     -0.68029630     -4.65319495
  C      4.46178882     -1.22464809     -4.00665024
  C      3.75523361     -0.46513664     -3.08539384
  H      6.11630076     -1.27058163     -5.37388964
  H      5.55716255      2.40198694     -3.24988845
  H      2.89564741     -0.88859090     -2.57815890
  H      4.14781439     -2.24012619     -4.22033062
  C      4.28429300      2.80269998     -0.69876268
  C      3.93873542      4.08000781     -0.24798766
  C      4.80553539      4.80204581      0.55705575
  C      6.02456274      4.25489754      0.93258549
  C      6.36378126      2.97335718      0.52027342
  C      5.49802502      2.24795826     -0.28282973
  H      5.76805963      1.24609517     -0.59864491
  H      6.70624985      4.82349469      1.55381554
  H      7.30707398      2.53621516      0.82698409
  H      2.98904284      4.51545484     -0.53902290
  H      6.81559293      1.05007477     -4.87337773
  C      2.31704004      3.01800639     -2.77563711
  C      0.97942197      2.83397713     -3.12366075
  C      0.33897873      3.70630119     -3.98933819
  C      1.03321205      4.78005935     -4.52799767
  C      2.36835847      4.97210634     -4.19688655
  C      3.00762564      4.09994124     -3.32935069
  H      0.53629387      5.46459203     -5.20512092
  H      2.91638374      5.80737913     -4.61704195
  H      4.04895967      4.26448380     -3.07767857
  H      4.52782331      5.79542579      0.89034760
  H     -0.70304676      3.54432695     -4.24195445
  H      0.43309612      1.99455512     -2.70800403
  P      3.31310218      2.25222313      3.95135598
  C      2.31436673      3.75506644      3.68622998
  C      2.06380790      4.71678812      4.66898770
  C      1.29809996      5.83707841      4.37894635
  C      0.77300138      6.01544052      3.10620028
  C      1.01252407      5.06491586      2.12324504
  C      1.77139331      3.94311075      2.41366806
  H      0.17886939      6.89314375      2.87983475
  H      2.46616734      4.59065967      5.66723072
  H      1.95080093      3.20010209      1.64320140
  H      0.60972238      5.19795474      1.12611576
  C      5.03381941      2.84376568      4.01317004
  C      6.03771517      1.88692552      3.83729479
  C      7.37434305      2.24558165      3.90286553
  C      7.72713811      3.56774654      4.14096453
  C      6.73834269      4.52847107      4.30469211
  C      5.39889033      4.17211750      4.23885004
  H      4.63659963      4.93340944      4.35807518
  H      8.77200723      3.84961465      4.19466330
  H      7.00904469      5.56200237      4.48699267
  H      5.76288603      0.85424514      3.64775690
  H      1.11346151      6.57451988      5.15142441
  C      2.99420496      1.77025409      5.67903243
  C      2.18836297      0.65300278      5.91071687
  C      1.89360253      0.24479664      7.20140557
  C      2.40720956      0.94572086      8.28368377
  C      3.22950004      2.04361432      8.06778621
  C      3.52760227      2.45145437      6.77669466
  H      2.17691990      0.62974322      9.29434335
  H      3.64643585      2.58329224      8.91015070
  H      4.19049057      3.29521598      6.62107610
  H      8.14206628      1.49238950      3.76878994
  H      1.26483551     -0.62425822      7.36013185
  H      1.79223621      0.09701975      5.06713761
  P     -3.60070230      4.16444152     -0.46283303
  C     -5.12958405      5.08424339     -0.80087260
  C     -5.75792350      5.88806921      0.15512215
  C     -6.91383378      6.58194084     -0.16729805
  C     -7.45589786      6.48409690     -1.44173188
  C     -6.84175118      5.68519310     -2.39693572
  C     -5.68790254      4.98722833     -2.07834125
  H     -8.35986428      7.02780287     -1.68960165
  H     -5.34394825      5.96443474      1.15415906
  H     -5.21137695      4.35778084     -2.82317195
  H     -7.26429682      5.60242172     -3.39155459
  C     -2.26193963      5.36843775     -0.73353115
  C     -0.98641394      4.88682584     -1.03775548
  C      0.06703987      5.76317054     -1.24998672
  C     -0.14119823      7.13373125     -1.17017068
  C     -1.40617133      7.62322661     -0.87525202
  C     -2.46013658      6.74923555     -0.65848683
  H     -3.44488884      7.14206843     -0.43248999
  H      0.68138221      7.81780417     -1.34246128
  H     -1.57481794      8.69213370     -0.81572225
  H     -0.82050238      3.81670337     -1.11006272
  H     -7.39289155      7.20209210      0.58142010
  C     -3.62180179      3.92329249      1.34019763
  C     -4.65255609      3.14679417      1.87989285
  C     -4.70680482      2.89585284      3.24089205
  C     -3.72788054      3.41039580      4.08090072
  C     -2.68962627      4.16402903      3.55280484
  C     -2.63235347      4.41652860      2.19068149
  H     -3.77459668      3.22057875      5.14667087
  H     -1.91851668      4.56095835      4.20350130
  H     -1.81818831      5.00819253      1.78897889
  H      1.05041332      5.37583790     -1.49026329
  H     -5.51428500      2.29785212      3.64729790
  H     -5.42010698      2.74768317      1.22481921
  P     -1.29119994     -0.58126704      3.64918514
  C     -1.42779894      0.73054741      4.90639767
  C     -2.38352307      0.69114739      5.92701649
  C     -2.41059971      1.67403350      6.90443067
  C     -1.49250659      2.71605454      6.87205933
  C     -0.56282431      2.78277543      5.84433082
  C     -0.53323167      1.80014730      4.86626071
  H     -1.50896769      3.47998754      7.64026724
  H     -3.11744348     -0.10638980      5.95146353
  H      0.19081397      1.86195750      4.06025753
  H      0.14639760      3.60107033      5.80558584
  C     -0.70269653     -2.03900876      4.57003627
  C     -0.14827289     -3.07460769      3.81205462
  C      0.30815360     -4.23397901      4.41660363
  C      0.24731379     -4.36545106      5.79743735
  C     -0.27416664     -3.33378261      6.56501310
  C     -0.75170400     -2.18099340      5.95800450
  H     -1.15969490     -1.38682482      6.57210444
  H      0.61370865     -5.26777610      6.27273068
  H     -0.31479247     -3.42580101      7.64416505
  H     -0.06628308     -2.95931803      2.73602417
  H     -3.14996671      1.62452917      7.69519087
  C     -3.04765033     -0.94957416      3.31180235
  C     -3.67540824     -0.23481170      2.28922201
  C     -5.01292925     -0.44534999      1.99463544
  C     -5.74582727     -1.37412399      2.72217468
  C     -5.13285941     -2.09161554      3.73944382
  C     -3.79280193     -1.88421676      4.03299688
  H     -6.79325371     -1.53742443      2.49729026
  H     -5.69915485     -2.82108267      4.30674573
  H     -3.32198117     -2.45856387      4.82264287
  H      0.71634991     -5.03301205      3.80925175
  H     -5.48373423      0.11927515      1.19746394
  H     -3.10984755      0.49741639      1.72276594

