#B3LYP/6-31+G(d) OPT FREQ

246, Energy =   -372.44189713 au

0 1
 Au      0.72259388     -1.03674147      2.45556484
 Au     -3.26905804     -0.93133155     -0.52027621
 Au     -2.09516164      0.89265580      1.12431305
 Au     -0.80013309     -0.10601359     -1.54665879
 Au     -2.07423265     -1.62327855      1.77387681
 Au      0.97160674      0.90345755      0.32663965
 Au      1.00983715      1.45403422     -2.55219585
 Au      1.20982527     -1.85822608      0.03716261
  P     -3.98090127     -1.62999760     -2.66113294
  C     -2.83450586     -1.01277704     -3.93499819
  C     -1.58336862     -1.61613976     -4.10334861
  C     -0.63989641     -1.05507545     -4.95204275
  C     -0.92605563      0.11726942     -5.63901841
  C     -2.16360594      0.72389606     -5.47842926
  C     -3.10800416      0.16765080     -4.62859396
  H     -0.18622681      0.55580833     -6.29815576
  H     -1.35369027     -2.53699162     -3.57961053
  H     -4.06641866      0.65667969     -4.50055049
  H     -2.39530688      1.63713194     -6.01441089
  C     -5.63671449     -1.15389976     -3.22076351
  C     -6.55185367     -0.72009965     -2.25816670
  C     -7.83421370     -0.34226750     -2.62343633
  C     -8.21764634     -0.39090629     -3.95687348
  C     -7.31556684     -0.81662669     -4.92300810
  C     -6.03203565     -1.19569826     -4.56233583
  H     -5.33105030     -1.51639268     -5.32460865
  H     -9.21935451     -0.09397765     -4.24423636
  H     -7.61177224     -0.85263604     -5.96487783
  H     -6.24884905     -0.67605946     -1.21692097
  H      0.32467223     -1.53380136     -5.07535581
  C     -3.87844652     -3.44229769     -2.79046335
  C     -2.97454333     -4.10454494     -1.95526053
  C     -2.85392521     -5.48444910     -1.99432203
  C     -3.64235105     -6.22521046     -2.86523247
  C     -4.55038318     -5.57885247     -3.69276701
  C     -4.67063784     -4.19810692     -3.65690159
  H     -3.55514849     -7.30491058     -2.89042734
  H     -5.17299333     -6.15326730     -4.36867249
  H     -5.38987491     -3.70762509     -4.30221793
  H     -8.53408884     -0.00821599     -1.86635311
  H     -2.15607441     -5.98374867     -1.33195122
  H     -2.36962524     -3.53043367     -1.26093231
  P     -2.29371303     -3.84974717      2.57479936
  C     -3.51195965     -4.82119887      1.62754450
  C     -3.39654538     -6.19949212      1.43151220
  C     -4.36178742     -6.88836100      0.71215622
  C     -5.45229447     -6.21466615      0.17894514
  C     -5.57787503     -4.84506031      0.36863112
  C     -4.61536148     -4.15568540      1.08822810
  H     -6.20176786     -6.75565019     -0.38656186
  H     -2.54655782     -6.73535620      1.83792483
  H     -4.71732188     -3.08519561      1.23351587
  H     -6.42481682     -4.31133137     -0.04720362
  C     -2.89931826     -3.97184423      4.28249811
  C     -3.17285667     -2.78807397      4.97123669
  C     -3.66141094     -2.82119424      6.26898255
  C     -3.88101006     -4.04120551      6.89417977
  C     -3.62033867     -5.22529247      6.21564643
  C     -3.13883616     -5.19482914      4.91648686
  H     -2.95219776     -6.12319143      4.38817646
  H     -4.26061921     -4.07021241      7.90870566
  H     -3.79868375     -6.17842523      6.69974005
  H     -2.99727605     -1.83467259      4.48302216
  H     -4.25945291     -7.95751056      0.56681309
  C     -0.78652010     -4.85718549      2.47322289
  C     -0.25078758     -5.07895624      1.19922375
  C      0.91972072     -5.80068343      1.04248635
  C      1.59399626     -6.28327164      2.15755374
  C      1.08724352     -6.04420770      3.42623527
  C     -0.09725151     -5.33942798      3.58491914
  H      2.51477133     -6.84119169      2.03377569
  H      1.61227968     -6.41019606      4.30145441
  H     -0.48867410     -5.16566003      4.58033169
  H     -3.86915933     -1.89348323      6.79019556
  H      1.30778422     -5.98619691      0.04767326
  H     -0.76784216     -4.69142349      0.32685659
  P     -2.83075801      3.19130724      0.99551431
  C     -4.13962739      3.47705168      2.22876211
  C     -4.54206946      4.75436052      2.62729756
  C     -5.54493896      4.91287080      3.57124744
  C     -6.16285479      3.80299168      4.13060665
  C     -5.77315280      2.52789505      3.74316131
  C     -4.76658995      2.36738224      2.80376863
  H     -6.94605415      3.93059750      4.86845382
  H     -4.06955383      5.62980225      2.19718775
  H     -4.46190521      1.36980314      2.50592084
  H     -6.25102499      1.65560306      4.17405232
  C     -3.73504081      3.14840705     -0.58528391
  C     -3.00156569      3.19061358     -1.77548708
  C     -3.63632010      3.05606006     -2.99904969
  C     -5.00911703      2.85083052     -3.05546507
  C     -5.74235654      2.77960256     -1.87982672
  C     -5.11153636      2.92757481     -0.65358242
  H     -5.69556853      2.87357742      0.25777521
  H     -5.50455217      2.74662600     -4.01365035
  H     -6.81228944      2.60945707     -1.91625586
  H     -1.92624682      3.33325614     -1.73830666
  H     -5.84548266      5.91031029      3.87029821
  C     -1.94736407      4.78877368      0.97777404
  C     -1.00347316      5.01805148      1.98230746
  C     -0.34698742      6.23455271      2.07357302
  C     -0.62883049      7.24357346      1.16267440
  C     -1.56219679      7.02648552      0.15806118
  C     -2.21729578      5.80802537      0.06148339
  H     -0.12009431      8.19760495      1.23424141
  H     -1.78588505      7.81214538     -0.55432085
  H     -2.94810395      5.65381862     -0.72371817
  H     -3.05751086      3.10383231     -3.91374335
  H      0.38311520      6.39526011      2.85860778
  H     -0.79244504      4.23800274      2.70509702
  P      0.77072307     -0.89965140      4.87104220
  C     -0.62120388     -0.09690113      5.72853943
  C     -0.84763807     -0.19230748      7.10549480
  C     -1.93274201      0.44717818      7.68585871
  C     -2.80699655      1.19306979      6.90673251
  C     -2.59355784      1.29758257      5.53908120
  C     -1.51197460      0.65488777      4.95836819
  H     -3.65433064      1.69038441      7.36386231
  H     -0.18002170     -0.77756678      7.72691618
  H     -1.35430499      0.73322121      3.88703341
  H     -3.27174781      1.87601146      4.92191892
  C      2.26406006      0.00459031      5.40339787
  C      3.35065098      0.01285564      4.52592969
  C      4.54049832      0.63400257      4.87035632
  C      4.66296578      1.25626375      6.10476718
  C      3.58922034      1.25842925      6.98524013
  C      2.39744536      0.64014454      6.63909429
  H      1.56742816      0.65888468      7.33521211
  H      5.59192635      1.74190257      6.37921555
  H      3.67900450      1.74529349      7.94938259
  H      3.25429634     -0.47403703      3.56149494
  H     -2.09586927      0.36088120      8.75384341
  C      0.99993504     -2.49010013      5.73525450
  C     -0.05200342     -3.15208939      6.37154577
  C      0.14869145     -4.38739597      6.97085166
  C      1.39982718     -4.98752341      6.93146497
  C      2.44802948     -4.34953574      6.28019672
  C      2.25006633     -3.11471673      5.68367933
  H      1.55762438     -5.94928791      7.40483211
  H      3.42661363     -4.81386413      6.24065739
  H      3.07688088     -2.62477849      5.18079800
  H      5.37044854      0.63266909      4.17280115
  H     -0.67821889     -4.87839829      7.47135931
  H     -1.03588628     -2.70022228      6.40335002
  P      2.45747633     -3.01135030     -1.66770819
  C      3.84589334     -1.99511481     -2.27045713
  C      4.93719728     -2.55509331     -2.94335910
  C      5.98935913     -1.75711380     -3.36404017
  C      5.97549292     -0.39137041     -3.11295836
  C      4.90494138      0.17368466     -2.43483213
  C      3.85189637     -0.62426655     -2.01620778
  H      6.80174522      0.23075803     -3.43677995
  H      4.96638570     -3.62344403     -3.12655189
  H      3.02790672     -0.17875419     -1.47142872
  H      4.89089285      1.23645643     -2.22394602
  C      1.66772871     -3.67760720     -3.16849986
  C      0.51481049     -4.45167797     -3.00103796
  C     -0.14563467     -4.98280785     -4.09772160
  C      0.32404975     -4.73461549     -5.38087292
  C      1.45718230     -3.95403221     -5.56041182
  C      2.12445315     -3.42780201     -4.46321437
  H      3.01164796     -2.82518487     -4.61663713
  H     -0.19407077     -5.14770117     -6.23813621
  H      1.82912071     -3.75540841     -6.55889180
  H      0.13953172     -4.64147000     -2.00067495
  H      6.82734794     -2.20482570     -3.88541794
  C      3.36198123     -4.43067111     -0.97158733
  C      3.99246669     -4.23289302      0.26091984
  C      4.71368277     -5.25404883      0.85644217
  C      4.80697030     -6.49277940      0.23319789
  C      4.17784966     -6.70240515     -0.98591427
  C      3.45977133     -5.67916839     -1.58848407
  H      5.36999141     -7.29299969      0.69876073
  H      4.24735750     -7.66722963     -1.47469021
  H      2.97428739     -5.85236785     -2.54188280
  H     -1.03070570     -5.59075963     -3.95028987
  H      5.20154203     -5.08520258      1.80957142
  H      3.91298857     -3.26791462      0.75159298
  P      2.20318033      2.74006528     -4.16513204
  C      2.41982346      1.73804081     -5.66875967
  C      2.19613651      2.22741999     -6.95699805
  C      2.37416360      1.40594843     -8.06006131
  C      2.78592050      0.09096200     -7.89396776
  C      3.00899897     -0.40657550     -6.61710842
  C      2.81607748      0.40628755     -5.51159765
  H      2.93013799     -0.54706967     -8.75783739
  H      1.87962790      3.25420489     -7.09960957
  H      2.97186273      0.01067500     -4.51341014
  H      3.33326799     -1.43200378     -6.48278360
  C      3.85731399      3.45662433     -3.88566993
  C      3.97028224      4.62295144     -3.12246422
  C      5.21248100      5.18129901     -2.86502237
  C      6.36352661      4.57369380     -3.35100327
  C      6.26370089      3.40883038     -4.09938874
  C      5.02126729      2.85266415     -4.36622012
  H      4.95581657      1.95113233     -4.96461489
  H      7.33444538      5.01269016     -3.15441790
  H      7.15737414      2.93288842     -4.48628094
  H      3.07604020      5.10469253     -2.74400389
  H      2.19389964      1.79758724     -9.05439031
  C      1.21649320      4.16599713     -4.70714715
  C     -0.15427325      4.15703291     -4.44090746
  C     -0.95926437      5.21772486     -4.82607958
  C     -0.40353534      6.30532034     -5.48646732
  C      0.95717126      6.32534542     -5.76086172
  C      1.76367395      5.26577483     -5.37538801
  H     -1.03074819      7.13683315     -5.78543805
  H      1.39468842      7.17159626     -6.27756374
  H      2.82597080      5.29522975     -5.58858346
  H      5.28014112      6.09624912     -2.28752950
  H     -2.02097845      5.19749477     -4.60835478
  H     -0.58612807      3.30678700     -3.92331961
  P      2.33074542      2.75342335      0.98583309
  C      2.06459684      4.37981724      0.20099002
  C      2.79994795      5.51770314      0.54823882
  C      2.59316987      6.71848992     -0.11282894
  C      1.64062525      6.80929722     -1.11945404
  C      0.88095192      5.69534791     -1.45071299
  C      1.09236152      4.49352198     -0.79300517
  H      1.48180663      7.74823887     -1.63622585
  H      3.53615224      5.46772650      1.34162600
  H      0.49040095      3.62918058     -1.05210206
  H      0.11861641      5.76144004     -2.21818109
  C      4.07227372      2.34147874      0.65929750
  C      4.51417351      1.09457970      1.11475974
  C      5.81243326      0.67244991      0.88598264
  C      6.69150064      1.48569759      0.18147175
  C      6.25861058      2.71426055     -0.29656507
  C      4.95836014      3.13996869     -0.06346362
  H      4.63470067      4.09742980     -0.45366573
  H      7.70732121      1.15703017     -0.00303055
  H      6.93363717      3.34817170     -0.86018646
  H      3.82385707      0.45025888      1.64792745
  H      3.17872287      7.58830719      0.16094619
  C      2.29913626      3.12464767      2.76876498
  C      1.14589024      2.80132353      3.48620408
  C      1.02550199      3.13997591      4.82463789
  C      2.06724726      3.79315295      5.46870559
  C      3.23517294      4.08315195      4.77626045
  C      3.35464784      3.75100171      3.43556759
  H      1.97544686      4.06049995      6.51470028
  H      4.06002313      4.57004457      5.28330071
  H      4.27609223      3.96901083      2.90789021
  H      6.13625799     -0.29600342      1.24948256
  H      0.12008973      2.88804878      5.36471045
  H      0.34185079      2.26992309      2.98764954

