#B3LYP/6-31+G(d) OPT FREQ

246, Energy =   -372.45282275 au

0 1
 Au     -0.78701758     -1.03477167      0.97779681
 Au      2.01544970      1.21731502     -0.30489431
 Au     -0.07467458     -0.57353951     -1.57335446
 Au     -2.79803382      3.09622934     -0.57378405
 Au     -2.78605699      0.48814016     -0.72528436
 Au      1.30863355      2.23289903      2.05039334
 Au     -0.54289534      1.86525654      0.19582993
 Au      0.69750017     -2.81105712     -0.35269711
  P     -4.15730853     -1.38504083     -1.46814438
  C     -5.82435226     -0.65990237     -1.49070905
  C     -5.96362071      0.57172546     -2.14103343
  C     -7.17354035      1.24461405     -2.13680580
  C     -8.26524529      0.70403354     -1.46918856
  C     -8.13710990     -0.50963243     -0.80927113
  C     -6.92584236     -1.18730024     -0.81540298
  H     -9.21182663      1.23129643     -1.45948694
  H     -5.10968056      1.00232329     -2.65361048
  H     -6.84138389     -2.13133917     -0.28981949
  H     -8.98390812     -0.93395870     -0.28231692
  C     -4.36329799     -3.00872311     -0.65361116
  C     -3.59432298     -3.34143198      0.45745639
  C     -3.75759140     -4.56082864      1.09603253
  C     -4.68011898     -5.47802817      0.61474632
  C     -5.42941200     -5.17376711     -0.51456359
  C     -5.27424784     -3.95061119     -1.14595966
  H     -5.85912054     -3.72440250     -2.03061172
  H     -4.81261659     -6.42973543      1.11571115
  H     -6.14163473     -5.89196899     -0.90368223
  H     -2.86548905     -2.63132748      0.83133707
  H     -7.26253142      2.19578104     -2.64952386
  C     -3.89571664     -1.97192819     -3.17932977
  C     -2.66615721     -2.57081056     -3.46876399
  C     -2.40907353     -3.08446983     -4.72914971
  C     -3.37582361     -3.00222609     -5.72348099
  C     -4.60008042     -2.41033143     -5.44693354
  C     -4.86218724     -1.90043739     -4.18285799
  H     -3.17423426     -3.40217726     -6.71014723
  H     -5.36033390     -2.34907578     -6.21687968
  H     -5.82415082     -1.44588661     -3.97707788
  H     -3.17232861     -4.78659050      1.97968259
  H     -1.45188406     -3.54854123     -4.93744919
  H     -1.90755016     -2.63779837     -2.69450429
  P      2.38842735      2.02417495      4.15976599
  C      4.05446960      2.75180502      4.20101890
  C      4.71746127      3.09353785      5.38230996
  C      6.00695591      3.60147385      5.33786984
  C      6.65116869      3.77378760      4.12014954
  C      5.99791099      3.44668520      2.93927158
  C      4.70766410      2.94477062      2.98082677
  H      7.65956935      4.16938843      4.09075445
  H      4.22039525      2.96940545      6.33767160
  H      4.19410985      2.70202835      2.05603446
  H      6.49060684      3.58692331      1.98365746
  C      2.72978415      0.24634469      4.39023142
  C      2.16175136     -0.66840860      3.50322215
  C      2.43953486     -2.02225143      3.59585497
  C      3.28060205     -2.48845697      4.59560968
  C      3.84601190     -1.59248428      5.49442241
  C      3.58054480     -0.23550754      5.38966017
  H      4.04042094      0.45608293      6.08642959
  H      3.49392464     -3.54779926      4.67706859
  H      4.50244404     -1.95252044      6.27796431
  H      1.49293437     -0.31260333      2.72764893
  H      6.51113384      3.86405591      6.26063287
  C      1.60583227      2.54590889      5.71495111
  C      1.42891152      3.91658085      5.93492222
  C      0.77142026      4.36808116      7.06743961
  C      0.26916918      3.45856283      7.98985050
  C      0.42543455      2.09652140      7.77291010
  C      1.08499117      1.64077485      6.64144920
  H     -0.24504460      3.81188939      8.87575220
  H      0.03048248      1.38268440      8.48662809
  H      1.19984572      0.57481542      6.48044894
  H      1.99139396     -2.71133248      2.88830275
  H      0.64852640      5.43247885      7.23048557
  H      1.81684553      4.62917630      5.21427486
  P      4.07005372      0.45127366     -1.21698726
  C      5.18134833      1.83701673     -1.60797403
  C      6.40907151      1.66598874     -2.25560518
  C      7.24104442      2.75123706     -2.47883298
  C      6.86893105      4.01912375     -2.05103319
  C      5.65854501      4.19947425     -1.39650163
  C      4.82255197      3.11555963     -1.17797724
  H      7.52397612      4.86460985     -2.22477015
  H      6.71708611      0.67952004     -2.58310974
  H      3.87542194      3.25869452     -0.66930927
  H      5.36324619      5.18483527     -1.05488278
  C      4.08007158     -0.62306516     -2.68433027
  C      3.71546399     -1.96521575     -2.53707756
  C      3.68088821     -2.81081196     -3.63378282
  C      4.00198409     -2.32787300     -4.89628275
  C      4.33195921     -0.99019416     -5.05958920
  C      4.36525599     -0.14156809     -3.96323460
  H      4.62465107      0.90161304     -4.10096341
  H      3.98849326     -2.99320856     -5.75129836
  H      4.56967481     -0.60464732     -6.04422343
  H      3.47280220     -2.35044806     -1.55135682
  H      8.18784924      2.60519745     -2.98561230
  C      5.07707224     -0.47178654     -0.01130258
  C      4.82000802     -0.29557460      1.34858183
  C      5.63863520     -0.87271478      2.30627525
  C      6.72611916     -1.64080210      1.91632532
  C      6.98241746     -1.83853589      0.56582632
  C      6.16506299     -1.26199594     -0.39290413
  H      7.37242974     -2.08657050      2.66318777
  H      7.82874983     -2.44032718      0.25595424
  H      6.37542968     -1.42487841     -1.44370831
  H      3.40325746     -3.85064108     -3.50476676
  H      5.43107144     -0.71667582      3.35851585
  H      3.96975004      0.30281499      1.65670311
  P      1.79197200     -4.91859531     -0.32680625
  C      3.51893020     -4.95829459      0.23856990
  C      3.77513186     -4.88358406      1.61206394
  C      5.07545892     -4.86983051      2.08861035
  C      6.14210830     -4.92126769      1.20082604
  C      5.90104934     -4.96594263     -0.16518110
  C      4.60002078     -4.97665982     -0.64510698
  H      7.15927034     -4.92521169      1.57414009
  H      2.94506337     -4.85459628      2.31007744
  H      4.42647016     -5.01762208     -1.71416992
  H      6.72975312     -4.99787192     -0.86303056
  C      1.77749487     -5.73908758     -1.95082455
  C      0.93285948     -5.23594240     -2.94225423
  C      0.82325354     -5.87410315     -4.16819632
  C      1.56905538     -7.01601464     -4.42514224
  C      2.41376996     -7.52500145     -3.44727234
  C      2.51123742     -6.89974229     -2.21458276
  H      3.15687407     -7.31664931     -1.44978992
  H      1.48731897     -7.51307792     -5.38454044
  H      2.99290686     -8.42001045     -3.64238062
  H      0.35229623     -4.34079268     -2.74292573
  H      5.25721083     -4.82548774      3.15637717
  C      0.96618051     -6.17108229      0.70720595
  C     -0.41769154     -6.07651922      0.87224934
  C     -1.10685047     -7.03403741      1.60024835
  C     -0.42313317     -8.09399808      2.18056624
  C      0.95187054     -8.19770423      2.02177817
  C      1.64283263     -7.24793290      1.28556688
  H     -0.96277237     -8.83976578      2.75214357
  H      1.49046543     -9.02542948      2.46823210
  H      2.71519060     -7.34498484      1.16167670
  H      0.14782170     -5.48390761     -4.92108530
  H     -2.18169055     -6.95636480      1.71391023
  H     -0.95478154     -5.24780809      0.42123419
  P     -3.00658114      5.46144860     -0.64135852
  C     -4.65830641      6.17872517     -0.40324438
  C     -4.88852178      7.41149707      0.21067846
  C     -6.18199275      7.89036013      0.35052733
  C     -7.25797214      7.14837038     -0.11775560
  C     -7.04049734      5.91771712     -0.72304534
  C     -5.74976368      5.43326551     -0.86003622
  H     -8.26722408      7.52690048     -0.00653291
  H     -4.05486130      7.99639031      0.58219929
  H     -5.57906909      4.46608606     -1.32329632
  H     -7.87770708      5.33159670     -1.08448898
  C     -2.41456417      6.16057523     -2.21378177
  C     -1.06970163      5.96239824     -2.54606220
  C     -0.57503102      6.38581124     -3.76845704
  C     -1.41802158      7.00759718     -4.68111221
  C     -2.75395715      7.20677551     -4.36325333
  C     -3.25355386      6.78274945     -3.13980708
  H     -4.29869846      6.94208367     -2.90050690
  H     -1.03278655      7.33640486     -5.63905157
  H     -3.41430172      7.69365599     -5.07144602
  H     -0.40985927      5.47961050     -1.83217601
  H     -6.34990155      8.84854083      0.82838142
  C     -1.90976218      6.25887592      0.57190652
  C     -1.50146504      5.52959753      1.69051659
  C     -0.62652479      6.08061023      2.61347568
  C     -0.15261512      7.37312161      2.43635201
  C     -0.55461716      8.11045102      1.33075030
  C     -1.42224069      7.55814016      0.40146030
  H      0.53283805      7.80365555      3.15698124
  H     -0.18569844      9.11938519      1.18733981
  H     -1.71445709      8.13386346     -0.46935848
  H      0.46979602      6.22608681     -4.01049756
  H     -0.30875622      5.49825060      3.47162307
  H     -1.86947895      4.51878387      1.83184178
  P     -0.06289172      0.62245614     -3.67147026
  C      1.15879476      1.97303127     -3.81107996
  C      2.10736780      2.03296600     -4.83344306
  C      3.03759647      3.06228638     -4.87595324
  C      3.04052737      4.04742399     -3.89900041
  C      2.10728772      3.99738929     -2.87237947
  C      1.18032819      2.96779035     -2.82845502
  H      3.77076231      4.84715160     -3.93200197
  H      2.12589581      1.27041957     -5.60298091
  H      0.45836753      2.94216917     -2.02210285
  H      2.10108384      4.75727644     -2.09964273
  C     -1.64714491      1.41272521     -4.12899217
  C     -2.60973735      0.64477439     -4.79087470
  C     -3.85464068      1.17123029     -5.09766346
  C     -4.17055218      2.47305250     -4.73481462
  C     -3.22515983      3.24591863     -4.07586221
  C     -1.97550253      2.72385955     -3.77483567
  H     -1.24811483      3.36049742     -3.28706626
  H     -5.14323752      2.88668112     -4.97290134
  H     -3.45579158      4.26887046     -3.80375242
  H     -2.37651075     -0.37247386     -5.08148151
  H      3.76367089      3.09263488     -5.68004020
  C      0.26825388     -0.44099999     -5.10745752
  C      0.74058744     -1.73627803     -4.89749399
  C      0.98880910     -2.58144088     -5.96902732
  C      0.76791425     -2.14264904     -7.26652469
  C      0.29862306     -0.85451392     -7.48953694
  C      0.04912214     -0.00863899     -6.42129916
  H      0.95901175     -2.80385304     -8.10341398
  H      0.12381112     -0.50771911     -8.50125823
  H     -0.32642015      0.99200182     -6.60323886
  H     -4.57868350      0.55942708     -5.62285377
  H      1.35608161     -3.58487063     -5.78835957
  H      0.91488902     -2.08253186     -3.88433969
  P     -1.74764287     -1.03488140      3.18793885
  C     -0.89888536     -2.29897265      4.18357974
  C     -0.35457086     -2.06594090      5.44732579
  C      0.32810168     -3.07091217      6.11707909
  C      0.48501677     -4.32038557      5.53434434
  C     -0.03461959     -4.56014386      4.26848721
  C     -0.71240596     -3.55601777      3.59733551
  H      1.01725301     -5.10399685      6.06041918
  H     -0.45722932     -1.09260373      5.91255188
  H     -1.10036271     -3.74375524      2.60176226
  H      0.09082884     -5.52998209      3.80072904
  C     -3.49254413     -1.56797790      3.15195716
  C     -4.37981480     -0.76776546      2.42486097
  C     -5.72719112     -1.07894185      2.36594333
  C     -6.20797820     -2.20369548      3.02497904
  C     -5.33655502     -3.00547926      3.74758207
  C     -3.98655704     -2.68973754      3.81742444
  H     -3.31680388     -3.31985367      4.39095204
  H     -7.26163985     -2.45174093      2.97629077
  H     -5.70743532     -3.88212461      4.26583327
  H     -4.00532991      0.10919004      1.90511340
  H      0.74308931     -2.87261067      7.09851360
  C     -1.93465169      0.40528329      4.29752156
  C     -1.52806681      1.67570888      3.90021407
  C     -1.72349298      2.77556905      4.72098498
  C     -2.34121818      2.62071424      5.95277533
  C     -2.76891400      1.36214379      6.35593678
  C     -2.57497325      0.26371665      5.53504163
  H     -2.49348304      3.47946627      6.59575297
  H     -3.26220742      1.23620793      7.31265324
  H     -2.93396554     -0.71036624      5.84835264
  H     -6.40254808     -0.44335431      1.80486903
  H     -1.39309768      3.75504217      4.39671599
  H     -1.06280105      1.80744254      2.93056151

