#B3LYP/6-31+G(d) OPT FREQ

246, Energy =   -372.45211482 au

0 1
 Au     -2.01585638      2.12679466      0.04268207
 Au     -1.01938272     -0.29589734     -0.65629356
 Au     -2.39234694     -1.72303756     -2.52763013
 Au     -0.43933569     -2.91378539     -0.92883691
 Au      0.66714076      1.41369568      0.46774979
 Au      1.82040211     -1.12522342     -0.62988251
 Au      0.32423469     -1.47598337      1.52191317
 Au     -2.28244483      1.07638143     -2.53826411
  P     -3.50382408      3.77325888      0.95595024
  C     -4.53073500      4.65551734     -0.26118309
  C     -5.92577613      4.61988998     -0.26573184
  C     -6.63978501      5.31426080     -1.23119299
  C     -5.97391606      6.04434968     -2.20523916
  C     -4.58526504      6.06864666     -2.22374863
  C     -3.87044788      5.37651810     -1.26126255
  H     -6.53563126      6.58903696     -2.95475781
  H     -6.45605548      4.05481470      0.49196006
  H     -2.78594640      5.39866426     -1.27545099
  H     -4.05855636      6.62681462     -2.98935992
  C     -2.76858119      5.12126852      1.93458433
  C     -1.59263616      4.85219572      2.63770273
  C     -0.99578964      5.82877950      3.41849808
  C     -1.55741195      7.09617424      3.49373018
  C     -2.71811915      7.38012405      2.78708381
  C     -3.32347033      6.40108644      2.01385293
  H     -4.22827160      6.63309507      1.46406771
  H     -1.08745870      7.86294312      4.09820716
  H     -3.15677931      8.36979718      2.83872416
  H     -1.14366916      3.86746462      2.56236150
  H     -7.72318739      5.28536599     -1.22010048
  C     -4.70636480      3.00938214      2.08719199
  C     -5.05024940      1.67268788      1.87144994
  C     -5.96627351      1.03610330      2.69365915
  C     -6.54498415      1.72489656      3.75130329
  C     -6.20360123      3.05126150      3.98197407
  C     -5.29174388      3.69176188      3.15649536
  H     -7.25936028      1.22761355      4.39673783
  H     -6.65229121      3.59200910      4.80710413
  H     -5.03113846      4.72705523      3.34497695
  H     -0.08432068      5.60417130      3.96119835
  H     -6.22806445      0.00047822      2.50873819
  H     -4.59123837      1.12967697      1.05158650
  P     -1.60068534     -1.54509643      3.11132023
  C     -1.83421840      0.09835497      3.86622904
  C     -3.02927372      0.50161684      4.46739286
  C     -3.12040156      1.73879455      5.08627000
  C     -2.02161958      2.58622071      5.12655164
  C     -0.83077152      2.19904444      4.52658118
  C     -0.74571546      0.97130636      3.89061391
  H     -2.09342384      3.54829067      5.62004261
  H     -3.89199615     -0.15480670      4.45015917
  H      0.18123227      0.67515749      3.41336279
  H      0.03688340      2.84800307      4.56015205
  C     -1.41589894     -2.63256155      4.56405299
  C     -1.40123655     -4.01503042      4.34677137
  C     -1.22231457     -4.89638331      5.39960041
  C     -1.06183561     -4.41121275      6.69117390
  C     -1.08146023     -3.04274229      6.91988141
  C     -1.24703099     -2.15675062      5.86500642
  H     -1.24858392     -1.09040620      6.05854727
  H     -0.92543382     -5.09891102      7.51728811
  H     -0.96459403     -2.65807602      7.92641534
  H     -1.54617618     -4.39991088      3.34309858
  H     -4.05461794      2.04056420      5.54555667
  C     -3.28357948     -1.97161411      2.52968420
  C     -3.66594192     -1.57753434      1.24749888
  C     -4.91990365     -1.87966051      0.74376439
  C     -5.82463032     -2.58666834      1.52504812
  C     -5.46423091     -2.97943802      2.80707816
  C     -4.20622820     -2.67661036      3.30809232
  H     -6.80493393     -2.83283573      1.13491282
  H     -6.16686199     -3.52675930      3.42454854
  H     -3.94181289     -2.99415037      4.30961513
  H     -1.21115505     -5.96380901      5.21063602
  H     -5.18662503     -1.56604175     -0.25904841
  H     -2.96565611     -1.02392381      0.63268019
  P      2.27158899      3.09537764      1.01588042
  C      1.61079577      4.79399470      0.93768896
  C      2.30247460      5.88425639      1.47536109
  C      1.80870953      7.17083633      1.33039041
  C      0.62890511      7.39357071      0.63263938
  C     -0.05504965      6.32190562      0.07745115
  C      0.43254294      5.03307887      0.22980416
  H      0.24452984      8.40035787      0.52026269
  H      3.23379675      5.72560324      2.00713102
  H     -0.11059584      4.19952245     -0.20302720
  H     -0.97784703      6.48841342     -0.46623968
  C      3.60611045      3.25524440     -0.21546089
  C      3.29675908      2.95691724     -1.54466632
  C      4.23185472      3.14888073     -2.54918577
  C      5.49341944      3.63721829     -2.23850307
  C      5.81175493      3.93917887     -0.92126438
  C      4.87469013      3.75726888      0.08474058
  H      5.13216835      4.00900855      1.10703448
  H      6.22716316      3.78367355     -3.02225787
  H      6.79346835      4.32635499     -0.67446734
  H      2.31164153      2.57312440     -1.78896545
  H      2.35148852      8.00450065      1.76033184
  C      3.11826394      2.97606422      2.61852895
  C      2.66050835      3.66815433      3.74277407
  C      3.29749744      3.52731966      4.96643406
  C      4.39557886      2.68627601      5.08855850
  C      4.83914297      1.96798027      3.98604339
  C      4.19871276      2.09907361      2.76390008
  H      4.90175342      2.58685969      6.04134482
  H      5.69106951      1.30447630      4.07633915
  H      4.54593699      1.52548037      1.91102346
  H      3.97628942      2.91565944     -3.57631086
  H      2.94008077      4.08441791      5.82461929
  H      1.80934099      4.33399938      3.65657251
  P     -0.24738406     -5.29319055     -1.10484074
  C     -1.26802915     -6.08691586      0.17697742
  C     -1.11877788     -7.42597521      0.54899410
  C     -1.93660565     -7.97919014      1.52296945
  C     -2.91603271     -7.20813875      2.13543713
  C     -3.07587332     -5.87800373      1.77188837
  C     -2.25357435     -5.32117264      0.80404823
  H     -3.55497975     -7.64410212      2.89430456
  H     -0.36122050     -8.03833237      0.07326506
  H     -2.37725759     -4.27955155      0.52628901
  H     -3.84370050     -5.27201941      2.23960758
  C      1.40420473     -6.03918279     -0.92565953
  C      2.37907255     -5.31961184     -0.23289302
  C      3.64365092     -5.84801111     -0.02883813
  C      3.95694128     -7.10366058     -0.53200450
  C      3.00225846     -7.82216295     -1.24011028
  C      1.73402300     -7.29750553     -1.43685078
  H      0.99938579     -7.86361508     -1.99784191
  H      4.94498212     -7.52018431     -0.37574159
  H      3.24598386     -8.79919331     -1.64086311
  H      2.13695556     -4.33405934      0.15021993
  H     -1.81015438     -9.01881058      1.80167053
  C     -0.88077598     -5.98497235     -2.66014466
  C     -2.16881450     -6.51369630     -2.76891116
  C     -2.64722739     -6.94400737     -3.99718310
  C     -1.85336375     -6.84383669     -5.13126199
  C     -0.57641650     -6.30538230     -5.03628390
  C     -0.09519150     -5.87210672     -3.81197662
  H     -2.22971963     -7.18227474     -6.08938291
  H      0.04681067     -6.22059927     -5.91930529
  H      0.90059456     -5.44649855     -3.74275369
  H      4.38411028     -5.27899796      0.52218586
  H     -3.64576955     -7.35976874     -4.06728284
  H     -2.79661767     -6.59425922     -1.88878705
  P      2.26735074     -2.28543948      2.99877023
  C      2.18558850     -1.64850116      4.70503999
  C      2.03373422     -2.45746969      5.83155978
  C      1.93181820     -1.89108575      7.09406059
  C      1.95662148     -0.51255718      7.24845778
  C      2.09834203      0.30317704      6.13343116
  C      2.21678380     -0.25936821      4.87344631
  H      1.86669199     -0.07338452      8.23489411
  H      1.99469504     -3.53536615      5.72602379
  H      2.34643131      0.37923817      4.00547346
  H      2.11910352      1.38119979      6.24473048
  C      4.01709579     -1.98454282      2.53839470
  C      4.42436827     -2.34495514      1.25192690
  C      5.74646189     -2.22040288      0.86026689
  C      6.68689052     -1.71107200      1.74626639
  C      6.29438678     -1.33587268      3.02265760
  C      4.97217452     -1.47733321      3.42087121
  H      4.68623694     -1.19567178      4.42728223
  H      7.72137092     -1.60867593      1.44069907
  H      7.02347714     -0.94238858      3.72154700
  H      3.69456454     -2.73660721      0.55108548
  H      1.82707881     -2.53341308      7.96070710
  C      2.30888525     -4.09804591      3.20637267
  C      1.25478547     -4.86868365      2.71560631
  C      1.25725972     -6.24743110      2.86423541
  C      2.32284271     -6.87722216      3.49011654
  C      3.38761120     -6.12346076      3.96669715
  C      3.38260683     -4.74506959      3.82817768
  H      2.32687121     -7.95508392      3.60146879
  H      4.22641371     -6.61139482      4.44925831
  H      4.21962112     -4.16446364      4.19980625
  H      6.04346854     -2.52122138     -0.13775865
  H      0.42830081     -6.83176543      2.48263351
  H      0.43014447     -4.38018669      2.20756499
  P     -3.00051334      2.36712748     -4.38890616
  C     -1.98165944      3.85855171     -4.63308314
  C     -1.81685893      4.47349843     -5.87663733
  C     -1.01754831      5.59977600     -6.00174022
  C     -0.36459203      6.12230143     -4.89364205
  C     -0.50846796      5.51133684     -3.65524556
  C     -1.31000415      4.38826329     -3.52798748
  H      0.26283753      6.99984269     -4.99614584
  H     -2.30534569      4.06200944     -6.75261393
  H     -1.41151323      3.90398556     -2.56203118
  H      0.01024615      5.90469555     -2.78812539
  C     -4.71537395      2.96527797     -4.32917480
  C     -5.61746603      2.26164236     -3.52745092
  C     -6.95211896      2.63045944     -3.47456851
  C     -7.40364724      3.70839575     -4.22399976
  C     -6.51255048      4.42646716     -5.01073958
  C     -5.17517771      4.06388543     -5.06026197
  H     -4.48499508      4.64087652     -5.66504994
  H     -8.44835020      3.99397038     -4.18933697
  H     -6.85999518      5.27390466     -5.59017707
  H     -5.26483052      1.41792182     -2.94285800
  H     -0.90023056      6.06850325     -6.97188867
  C     -2.85912273      1.49158473     -5.97815260
  C     -1.82085343      0.56479127     -6.10943756
  C     -1.63559293     -0.12788457     -7.29430010
  C     -2.49382308      0.08786918     -8.36461601
  C     -3.53741944      0.99446305     -8.24135783
  C     -3.72231942      1.69267618     -7.05729756
  H     -2.35277468     -0.45562447     -9.29144941
  H     -4.21435475      1.15969274     -9.07147856
  H     -4.54629239      2.39162965     -6.97081200
  H     -7.64079667      2.07476176     -2.84874039
  H     -0.82310877     -0.84060130     -7.37998274
  H     -1.15463301      0.38569793     -5.27151844
  P      3.24473615     -1.03675973     -2.54057454
  C      4.96866309     -0.56159448     -2.21025305
  C      6.03916449     -0.92672410     -3.03083539
  C      7.32520196     -0.50470482     -2.73074486
  C      7.56154862      0.28195570     -1.61114411
  C      6.50678383      0.64029861     -0.78267195
  C      5.22079005      0.21851419     -1.07948138
  H      8.56829837      0.60960168     -1.38039304
  H      5.86706433     -1.55077238     -3.90029886
  H      4.39788931      0.48875010     -0.42565008
  H      6.68453634      1.24518372      0.09918044
  C      2.69435309      0.16169031     -3.79770076
  C      1.49625565      0.84661739     -3.59386019
  C      1.06216729      1.80372418     -4.49703174
  C      1.81325251      2.08116268     -5.62996960
  C      3.00241447      1.39821488     -5.85185007
  C      3.44479408      0.45064392     -4.94150569
  H      4.38114062     -0.06613559     -5.11819860
  H      1.47342432      2.82933436     -6.33657829
  H      3.59288291      1.60914745     -6.73578139
  H      0.89924092      0.62897274     -2.71541057
  H      8.14784576     -0.79383314     -3.37431788
  C      3.36443240     -2.61290384     -3.43597911
  C      4.07922149     -3.66370410     -2.85138261
  C      4.12403676     -4.90833507     -3.45695427
  C      3.44630530     -5.12722826     -4.64944290
  C      2.72026117     -4.09564526     -5.23005557
  C      2.67203290     -2.84830285     -4.62546257
  H      3.48436569     -6.10012556     -5.12494218
  H      2.18951029     -4.26108500     -6.16044912
  H      2.09849406     -2.05101665     -5.08441682
  H      0.14038474      2.33978306     -4.30657082
  H      4.68657555     -5.71143312     -2.99486586
  H      4.60653991     -3.50023585     -1.91752128

