246
Energy =   -372.41682610 au
 Au     -0.40093101      0.19499643     -1.24406711
 Au      2.20454794     -0.72597952     -0.48233407
 Au     -1.75816281     -1.64449618     -2.66985057
 Au     -1.81557744      0.77997332      1.31297963
 Au     -3.04940532     -0.61096146     -0.66745977
 Au      1.12249959      1.42228565      0.75227567
 Au     -0.80003423      2.73445849      2.70488661
 Au     -0.05176527      0.19149120      3.17929562
  P     -0.53451297      2.22089085     -2.87565102
  C     -2.31980577      2.53371345     -3.10342289
  C     -2.97181616      3.70115142     -2.70417336
  C     -4.34846530      3.82080352     -2.83883306
  C     -5.09627492      2.77976124     -3.36973010
  C     -4.45871581      1.61793601     -3.78530955
  C     -3.08547931      1.49859776     -3.65246328
  H     -6.17138294      2.87441891     -3.46605596
  H     -2.40281084      4.52590342     -2.29118083
  H     -2.59307215      0.59223061     -3.99041605
  H     -5.02957619      0.80375218     -4.21758816
  C      0.12501061      2.33304576     -4.57686906
  C      1.49298788      2.09991759     -4.75851631
  C      2.06227094      2.20124515     -6.01810984
  C      1.27080700      2.50233373     -7.11979191
  C     -0.09235439      2.70117555     -6.95471372
  C     -0.66212721      2.62335103     -5.69298482
  H     -1.72505986      2.79888308     -5.57656464
  H      1.71772681      2.57825747     -8.10393713
  H     -0.71670883      2.92941871     -7.81074239
  H      2.11378227      1.84585313     -3.90457323
  H     -4.83828197      4.73550749     -2.52531129
  C      0.08624558      3.74563920     -2.08241720
  C     -0.30208688      3.99142484     -0.76032931
  C      0.20776948      5.07124316     -0.05872904
  C      1.12179922      5.92591531     -0.65920133
  C      1.51289003      5.69623996     -1.97088418
  C      1.00354250      4.61402894     -2.67565225
  H      1.52527317      6.76558866     -0.10537193
  H      2.21567165      6.36535531     -2.45367340
  H      1.32261216      4.45113029     -3.69825606
  H      3.12770212      2.04698422     -6.14051165
  H     -0.10811618      5.24590410      0.96330876
  H     -1.02424872      3.33624370     -0.28535663
  P     -2.00002866     -2.83962293     -4.71004547
  C     -3.54064007     -2.30472179     -5.51549943
  C     -3.67403207     -2.14906125     -6.89621327
  C     -4.87470507     -1.71952099     -7.44094269
  C     -5.95823507     -1.44412303     -6.61859336
  C     -5.83678583     -1.59324762     -5.24328578
  C     -4.63502138     -2.01314653     -4.69534095
  H     -6.89577668     -1.11029660     -7.04717872
  H     -2.83521072     -2.36169440     -7.54898345
  H     -4.53764997     -2.11435373     -3.61890954
  H     -6.68042898     -1.38256485     -4.59587451
  C     -2.15438400     -4.64750886     -4.58439222
  C     -1.00102707     -5.43279435     -4.48384897
  C     -1.09361080     -6.79863705     -4.26935907
  C     -2.33805676     -7.40052571     -4.13894825
  C     -3.48914654     -6.62951804     -4.22512888
  C     -3.40066144     -5.26246984     -4.44075518
  H     -4.30674913     -4.67080172     -4.50776688
  H     -2.41030698     -8.46848035     -3.97076682
  H     -4.46341262     -7.09374014     -4.12497179
  H     -0.02517731     -4.97165081     -4.58520673
  H     -4.96392709     -1.60093703     -8.51451762
  C     -0.70621297     -2.55312263     -5.95136351
  C      0.07208553     -1.39884903     -5.83200829
  C      1.07081346     -1.12460357     -6.75257865
  C      1.30806026     -2.00026119     -7.80379718
  C      0.54110171     -3.15059409     -7.93234901
  C     -0.46038579     -3.42756690     -7.01443039
  H      2.09143623     -1.78605289     -8.52129093
  H      0.72321109     -3.83665654     -8.75126241
  H     -1.05086968     -4.33062307     -7.11802610
  H     -0.18958569     -7.39315230     -4.20293612
  H      1.66809729     -0.22662537     -6.64648672
  H     -0.10713042     -0.71503798     -5.00801469
  P     -0.09026270      4.67012304      3.84240264
  C     -1.12268368      6.16123063      3.73737875
  C     -0.97627230      7.22976379      4.62772788
  C     -1.78035703      8.35210618      4.51089568
  C     -2.73867209      8.42430151      3.50817044
  C     -2.89832549      7.36513882      2.62567645
  C     -2.10015587      6.23789698      2.74332386
  H     -3.36480367      9.30412491      3.41851983
  H     -0.23508943      7.17743965      5.41742560
  H     -2.23719092      5.40361695      2.06296873
  H     -3.64812809      7.41554286      1.84436108
  C      1.59818610      5.19368178      3.42340445
  C      2.59536528      4.21240556      3.44183423
  C      3.90742250      4.53690599      3.14270219
  C      4.23970276      5.84484942      2.81045624
  C      3.25272723      6.81820321      2.75608511
  C      1.93744005      6.49686345      3.05823164
  H      1.17431305      7.26556225      3.02067406
  H      5.26912191      6.10509220      2.59452610
  H      3.50702054      7.83614376      2.48465115
  H      2.33592234      3.19069830      3.70296430
  H     -1.65879291      9.17405931      5.20667674
  C     -0.00401173      4.32552266      5.62664436
  C     -0.96488175      3.47131302      6.17430590
  C     -0.97633818      3.19895697      7.53230404
  C     -0.02434315      3.77593193      8.36280709
  C      0.94413625      4.61466551      7.82785847
  C      0.95791391      4.88843777      6.46837657
  H     -0.03510148      3.56777378      9.42619626
  H      1.69220905      5.06149723      8.47231291
  H      1.72148832      5.53956362      6.05855945
  H      4.67281373      3.76950275      3.16810057
  H     -1.72764649      2.53446580      7.94338478
  H     -1.70898996      3.01979184      5.52577178
  P      1.72864631     -3.15791826     -0.32562682
  C     -0.05148263     -3.53699712     -0.14706260
  C     -0.81052264     -4.23749981     -1.08572859
  C     -2.17470398     -4.42173147     -0.89489825
  C     -2.79928830     -3.90757499      0.23307724
  C     -2.05184078     -3.21092073      1.17626457
  C     -0.69270853     -3.02610092      0.98470548
  H     -3.86238700     -4.05385405      0.38235656
  H     -0.33627395     -4.65385537     -1.96647224
  H     -0.11741601     -2.47607151      1.72318390
  H     -2.52997749     -2.81413073      2.06390788
  C      2.44554412     -4.23282110      0.96598295
  C      3.48034185     -3.74753067      1.76520692
  C      4.10125377     -4.56700794      2.69646270
  C      3.68771436     -5.88346226      2.84598376
  C      2.63714291     -6.36952258      2.07701635
  C      2.01705648     -5.55240263      1.14517717
  H      1.19875578     -5.93968031      0.54819498
  H      4.17907484     -6.52959152      3.56379558
  H      2.30367631     -7.39352756      2.19901074
  H      3.80156386     -2.71855689      1.65598620
  H     -2.74826056     -4.97313990     -1.63094780
  C      2.20406981     -3.97864378     -1.88144014
  C      1.78406561     -3.38761660     -3.07803409
  C      2.19177725     -3.89771125     -4.30162178
  C      3.03491403     -5.00079286     -4.35078285
  C      3.46629288     -5.58884491     -3.17107038
  C      3.06051926     -5.07971323     -1.94638687
  H      3.35864504     -5.39277321     -5.30760568
  H      4.12920977     -6.44572446     -3.20106960
  H      3.41612347     -5.54478455     -1.03462041
  H      4.91253639     -4.17600027      3.30005538
  H      1.86786325     -3.42184802     -5.21898845
  H      1.13344697     -2.51847234     -3.04670023
  P      4.40456234     -0.08470606     -1.54762412
  C      4.90426286      1.54287848     -0.90184261
  C      5.97186435      1.74207345     -0.02564338
  C      6.24850803      3.00765863      0.47166867
  C      5.45800777      4.08845813      0.10942964
  C      4.37033186      3.89763162     -0.73257430
  C      4.09204448      2.63573584     -1.22886445
  H      5.68687724      5.07970248      0.48169901
  H      6.60292449      0.90860386      0.26071926
  H      3.24114676      2.49336849     -1.88804007
  H      3.73802366      4.73490918     -1.00488942
  C      4.58457302      0.11430325     -3.35973222
  C      4.10167752     -0.92561003     -4.15762607
  C      4.29948413     -0.91863641     -5.52853955
  C      4.97741148      0.13645800     -6.12561922
  C      5.44519429      1.18537865     -5.34425340
  C      5.25325038      1.17664087     -3.96990245
  H      5.63379264      1.99653397     -3.37206646
  H      5.14316517      0.14025370     -7.19645995
  H      5.97634092      2.01033599     -5.80478158
  H      3.57880200     -1.75368155     -3.69191345
  H      7.09057456      3.14892751      1.13943511
  C      5.82988673     -1.18508981     -1.23906849
  C      5.59373094     -2.44967525     -0.70130736
  C      6.63643583     -3.33547694     -0.47806205
  C      7.93486532     -2.96780916     -0.80067910
  C      8.18170196     -1.72034035     -1.36025394
  C      7.13925807     -0.83563184     -1.58528238
  H      8.75378972     -3.65574145     -0.62637284
  H      9.19287681     -1.43666028     -1.62817150
  H      7.33975856      0.12794215     -2.04059509
  H      3.93207321     -1.74264369     -6.12981475
  H      6.43177772     -4.31261301     -0.05511896
  H      4.57659435     -2.74353442     -0.46718645
  P     -4.84256672      0.01718236      0.80434903
  C     -4.70764043     -0.66665159      2.48285765
  C     -4.21286181      0.09054818      3.54772638
  C     -3.96955593     -0.49661859      4.78028502
  C     -4.22233385     -1.84808027      4.97138499
  C     -4.72313302     -2.61070013      3.92341734
  C     -4.95428348     -2.02832606      2.68654356
  H     -4.03728533     -2.30502503      5.93634213
  H     -4.02713430      1.14959414      3.41500880
  H     -5.33838934     -2.63142460      1.87084353
  H     -4.93325712     -3.66395722      4.06894602
  C     -6.48445994     -0.49429793      0.20864385
  C     -6.68444705     -0.53457538     -1.17388092
  C     -7.92151506     -0.87539415     -1.69577721
  C     -8.97241582     -1.18815348     -0.84385183
  C     -8.78261320     -1.15474342      0.53098027
  C     -7.54808275     -0.80784854      1.05820313
  H     -7.40994341     -0.78422813      2.13311737
  H     -9.93884988     -1.45970928     -1.25179598
  H     -9.60050807     -1.39873140      1.19886970
  H     -5.86073537     -0.29481999     -1.83923549
  H     -3.58396066      0.10683760      5.59422913
  C     -5.03598352      1.80876990      1.06722987
  C     -4.20051022      2.70120830      0.39515785
  C     -4.32123074      4.06904935      0.59049300
  C     -5.28894527      4.56292938      1.45310452
  C     -6.13626665      3.68539117      2.11769667
  C     -6.01465271      2.31865007      1.92609001
  H     -5.38838586      5.63142843      1.60382490
  H     -6.89726705      4.06818193      2.78754402
  H     -6.68226002      1.64078441      2.44614384
  H     -8.06560059     -0.89986169     -2.77001663
  H     -3.66290904      4.74710407      0.05975498
  H     -3.46026857      2.32294742     -0.30017314
  P      1.25124940     -1.09125019      4.63684114
  C      1.18739660     -0.54164351      6.36750884
  C      0.39609094     -1.16951590      7.33031965
  C      0.34368113     -0.67253851      8.62413763
  C      1.07520888      0.45468490      8.97017968
  C      1.85454265      1.09467994      8.01453646
  C      1.90370551      0.60762082      6.71939140
  H      1.03806066      0.83643324      9.98362402
  H     -0.17393493     -2.05421717      7.07028936
  H      2.50841728      1.11368548      5.97374993
  H      2.42337617      1.97880252      8.27817306
  C      3.03428020     -1.13724323      4.28841401
  C      3.50819138     -0.60396813      3.08972924
  C      4.86248209     -0.60870279      2.79371060
  C      5.76588386     -1.15142960      3.69675161
  C      5.30939569     -1.67395579      4.90036470
  C      3.95607452     -1.66153118      5.20092483
  H      3.61272091     -2.04892190      6.15339203
  H      6.82494062     -1.15902827      3.46745593
  H      6.01279822     -2.08700495      5.61387324
  H      2.80683263     -0.17582411      2.38203021
  H     -0.26852539     -1.17263258      9.36557984
  C      0.65072519     -2.80488069      4.66043154
  C     -0.73109274     -2.99098601      4.54343367
  C     -1.27645161     -4.26405678      4.53872132
  C     -0.44822471     -5.37332591      4.64503951
  C      0.92377359     -5.20023772      4.75859082
  C      1.47282044     -3.92674611      4.76400929
  H     -0.87187118     -6.37057522      4.63752345
  H      1.57462586     -6.06281852      4.84116009
  H      2.54714460     -3.80817762      4.84200547
  H      5.20862509     -0.18520774      1.85782838
  H     -2.34932881     -4.38962302      4.44802524
  H     -1.38060418     -2.12593424      4.45325843
