246
Energy =   -372.41781344 au
 Au      1.95823659     -1.49134603     -1.48477414
 Au     -2.30727538      0.13937131     -1.34888321
 Au     -2.95508123     -1.84628135      0.29756944
 Au      1.29988052      3.18949553     -1.01274094
 Au     -0.45452547     -1.24563745     -0.08737524
 Au      1.55044191      0.73498399     -0.02185131
 Au      0.15681894      2.64443294      1.25111458
 Au      1.98181551     -1.64066954      1.21531027
  P      2.65872838     -2.96078927      3.07311920
  C      2.40944251     -2.22466661      4.71583585
  C      1.30818045     -2.56018634      5.50704991
  C      1.08860847     -1.91439143      6.71397079
  C      1.95823303     -0.92207876      7.14486392
  C      3.05383116     -0.57883158      6.36459305
  C      3.27603685     -1.21946249      5.15637719
  H      1.78304137     -0.41784167      8.08781553
  H      0.62318288     -3.33487722      5.18068626
  H      4.12891454     -0.93854136      4.54821409
  H      3.73594320      0.19607714      6.69449158
  C      4.43079817     -3.34339685      2.98131545
  C      4.99897619     -3.46154872      1.70979712
  C      6.34404606     -3.75649931      1.55861867
  C      7.14220889     -3.94042174      2.67985492
  C      6.58772173     -3.83502271      3.94801182
  C      5.24209831     -3.53830207      4.10243924
  H      4.82205000     -3.45378893      5.09795588
  H      8.19581350     -4.16578347      2.56496262
  H      7.20642572     -3.98326477      4.82526898
  H      4.37297170     -3.32286321      0.83401413
  H      0.23328824     -2.18899811      7.32063647
  C      1.84794503     -4.58626111      3.19709988
  C      0.52492811     -4.71499609      2.76760700
  C     -0.13514147     -5.93000430      2.87590042
  C      0.52191853     -7.03480363      3.40050291
  C      1.84021401     -6.92002559      3.81902482
  C      2.49965735     -5.70480236      3.72157136
  H      0.00629773     -7.98456528      3.47941330
  H      2.35843352     -7.78055452      4.22568731
  H      3.52840123     -5.62441068      4.05370759
  H      6.76917646     -3.84064058      0.56502920
  H     -1.16433721     -6.01912885      2.54772610
  H      0.01399336     -3.85486719      2.34581895
  P     -4.86763511     -2.87669660      1.22363708
  C     -5.42773256     -4.32597171      0.28190164
  C     -6.19681346     -5.34383279      0.85220932
  C     -6.59891442     -6.42775046      0.08807948
  C     -6.24267295     -6.50984322     -1.25163940
  C     -5.47798486     -5.50462365     -1.82795230
  C     -5.06885978     -4.42193019     -1.06477326
  H     -6.55896009     -7.35872732     -1.84625399
  H     -6.47886595     -5.28604783      1.89760005
  H     -4.46251544     -3.64052450     -1.51216226
  H     -5.19705131     -5.56421080     -2.87333475
  C     -6.33610901     -1.81312209      1.34948814
  C     -6.33324937     -0.77029191      2.28259219
  C     -7.40027514      0.11117378      2.35548651
  C     -8.47746241     -0.02645745      1.48958769
  C     -8.48418697     -1.05000568      0.55224131
  C     -7.41997456     -1.93652087      0.47804772
  H     -7.43480853     -2.73423626     -0.25580275
  H     -9.31065289      0.66401893      1.54605020
  H     -9.32412446     -1.16309703     -0.12340668
  H     -5.48980482     -0.65382593      2.95537562
  H     -7.19482389     -7.21191141      0.54051095
  C     -4.60575085     -3.50080320      2.91081520
  C     -3.33237395     -3.98178966      3.22567975
  C     -3.05277543     -4.47309998      4.49084531
  C     -4.04535957     -4.48762115      5.46258033
  C     -5.31489438     -4.01421867      5.16092378
  C     -5.59721212     -3.52471425      3.89437946
  H     -3.82818239     -4.86777165      6.45380145
  H     -6.09217847     -4.02584155      5.91609387
  H     -6.59121024     -3.15504823      3.67076273
  H     -7.38799242      0.91042950      3.08749232
  H     -2.05940938     -4.84287994      4.71940897
  H     -2.55859269     -3.96521861      2.46492111
  P      2.04605711      4.13939019     -3.06546608
  C      1.14059634      5.45666693     -3.94014073
  C      1.36916971      6.80418459     -3.65228330
  C      0.64005607      7.79298869     -4.29460158
  C     -0.32778782      7.45228614     -5.23001642
  C     -0.57462702      6.11454645     -5.51169551
  C      0.14496373      5.12308170     -4.86355463
  H     -0.88862764      8.22693141     -5.73934131
  H      2.13012462      7.08026853     -2.93084189
  H     -0.06185661      4.08109310     -5.08255783
  H     -1.33095635      5.84030299     -6.23840976
  C      2.33450777      2.89742376     -4.36447649
  C      2.32170668      1.54748057     -4.00997705
  C      2.60158489      0.56375507     -4.94415371
  C      2.87706071      0.91182355     -6.25907878
  C      2.87049721      2.24964347     -6.63250998
  C      2.60539843      3.23597894     -5.69423289
  H      2.59855261      4.27602689     -5.99922444
  H      3.09054016      0.14117386     -6.99065381
  H      3.07833347      2.52788226     -7.65906935
  H      2.09228878      1.26589155     -2.98795179
  H      0.83363456      8.83499682     -4.06799036
  C      3.68690585      4.86028091     -2.74844997
  C      3.89097127      5.44809666     -1.49581344
  C      5.11740681      6.00144919     -1.16342246
  C      6.16317964      5.96548669     -2.07595888
  C      5.97543224      5.37700044     -3.31898806
  C      4.74745053      4.82828907     -3.65609927
  H      7.12509864      6.39139234     -1.81630414
  H      6.79060483      5.34246173     -4.03242670
  H      4.61811236      4.36804304     -4.62872966
  H      2.60185999     -0.47724924     -4.64351587
  H      5.25754314      6.45526192     -0.18920780
  H      3.07753438      5.46527522     -0.77752074
  P     -3.12121613      1.85819557     -2.73938902
  C     -4.93823634      1.86271882     -2.70988276
  C     -5.71748744      3.01260529     -2.85640948
  C     -7.09985331      2.93890202     -2.76728579
  C     -7.72266896      1.72146608     -2.52680652
  C     -6.95835488      0.57166876     -2.37921462
  C     -5.57797231      0.64324783     -2.46822221
  H     -8.80226212      1.66930471     -2.45003287
  H     -5.24312503      3.97165705     -3.02923738
  H     -4.98198831     -0.25512900     -2.34380571
  H     -7.43684528     -0.38134844     -2.18477293
  C     -2.64949550      1.82776777     -4.49656624
  C     -1.29386542      1.66306637     -4.79690907
  C     -0.85807157      1.69485564     -6.11248399
  C     -1.77062169      1.88214477     -7.14376406
  C     -3.11980060      2.02859679     -6.85524253
  C     -3.55974275      2.00167593     -5.53979785
  H     -4.61517220      2.11857534     -5.32228707
  H     -1.42769066      1.90746491     -8.17135247
  H     -3.83559567      2.16770246     -7.65695949
  H     -0.57893805      1.50959106     -3.99401647
  H     -7.69242942      3.83899479     -2.88217463
  C     -2.63195297      3.54683337     -2.26803036
  C     -2.12946428      3.75711702     -0.98504780
  C     -1.73146192      5.01921667     -0.57201747
  C     -1.84072898      6.09740668     -1.43864699
  C     -2.34473792      5.90265115     -2.71735017
  C     -2.72738887      4.63758923     -3.13675262
  H     -1.53260633      7.08609244     -1.12000348
  H     -2.43146259      6.74077025     -3.39885203
  H     -3.09288817      4.49574291     -4.14748365
  H      0.19407444      1.56338181     -6.33588000
  H     -1.34567428      5.15780971      0.43145778
  H     -2.05945896      2.91823575     -0.30329630
  P     -1.55049285      2.76160879      2.91598049
  C     -1.69792143      1.23880470      3.91115095
  C     -2.12806512      1.19687012      5.23756762
  C     -2.24712494     -0.01635028      5.89989319
  C     -1.93618062     -1.20332024      5.25192039
  C     -1.47980425     -1.17251834      3.94153730
  C     -1.35705081      0.03858347      3.28194320
  H     -2.04289420     -2.15079005      5.76711117
  H     -2.37157271      2.11421841      5.76005770
  H     -0.98623932      0.05874429      2.26320594
  H     -1.21260675     -2.09066597      3.43119744
  C     -3.18456624      2.85209053      2.10921936
  C     -3.80732395      4.08336468      1.88805335
  C     -4.97768650      4.16191709      1.14791417
  C     -5.53416739      3.01679547      0.59737900
  C     -4.91670716      1.78908304      0.79610281
  C     -3.75718423      1.70595924      1.55025136
  H     -3.29706558      0.73704720      1.71130837
  H     -6.44378879      3.07895573      0.01172773
  H     -5.34082985      0.88997446      0.36465841
  H     -3.37457710      4.98843450      2.29856345
  H     -2.58728085     -0.03324380      6.92880153
  C     -1.54732792      4.15110466      4.08143995
  C     -0.39060073      4.93051157      4.16262287
  C     -0.31828910      6.00024144      5.04082408
  C     -1.40516884      6.30925927      5.84684570
  C     -2.56698539      5.55280045      5.76388021
  C     -2.64337214      4.48260158      4.88640588
  H     -1.35057432      7.14480688      6.53465919
  H     -3.42090640      5.79919837      6.38416825
  H     -3.56139226      3.91008762      4.81503829
  H     -5.45110038      5.12476548      0.99483707
  H      0.58641650      6.59476614      5.09288282
  H      0.45613749      4.69205448      3.52740930
  P      1.64917214     -3.13518610     -3.19207045
  C      0.26917154     -4.17674988     -2.60722994
  C     -0.74841914     -4.65227243     -3.43682552
  C     -1.79660758     -5.39491649     -2.91355393
  C     -1.84536815     -5.67836120     -1.55635628
  C     -0.82971680     -5.22757366     -0.72426901
  C      0.21788203     -4.48587968     -1.24483411
  H     -2.66994887     -6.25058495     -1.14770079
  H     -0.72811275     -4.43849286     -4.49880532
  H      1.01132086     -4.14549221     -0.58812879
  H     -0.85271024     -5.45475695      0.33445244
  C      2.99233968     -4.32092352     -3.48747281
  C      4.27310742     -4.02383678     -3.01825580
  C      5.31892882     -4.91202342     -3.21557547
  C      5.09512232     -6.10873173     -3.88187591
  C      3.82334626     -6.41651362     -4.34879820
  C      2.77548039     -5.53176601     -4.15353910
  H      1.78315907     -5.77885004     -4.51457017
  H      5.91152261     -6.80440855     -4.03601338
  H      3.64656335     -7.35196875     -4.86671969
  H      4.44616200     -3.08919832     -2.49546678
  H     -2.57954002     -5.75282016     -3.57224303
  C      1.08736330     -2.60512776     -4.83883136
  C     -0.12636905     -1.91383475     -4.93255111
  C     -0.59687601     -1.48448673     -6.16196120
  C      0.15403447     -1.70220248     -7.31041057
  C      1.37405091     -2.35759074     -7.22414298
  C      1.83806023     -2.81163724     -5.99792314
  H     -0.21339143     -1.35988715     -8.27064968
  H      1.96474522     -2.52723013     -8.11677645
  H      2.78519133     -3.33561953     -5.94204900
  H      6.30882828     -4.66890519     -2.84703865
  H     -1.55202285     -0.97680763     -6.22457395
  H     -0.70758295     -1.72404720     -4.03505538
  P      5.63075446      2.28151339      2.28893086
  C      6.49343705      0.97007510      3.25446537
  C      6.19572943      0.71221879      4.59513000
  C      6.92741368     -0.21717094      5.32051387
  C      7.98046363     -0.89611093      4.72422843
  C      8.30711037     -0.62993358      3.40116244
  C      7.57917092      0.30114595      2.67714652
  H      8.55356643     -1.61977404      5.29210490
  H      5.38983944      1.24957514      5.08272794
  H      7.85677306      0.51288589      1.64992104
  H      9.13823279     -1.14458635      2.93233377
  C      5.21227480      1.33913806      0.74948365
  C      4.90956712      2.11187965     -0.37659148
  C      4.69942185      1.52685253     -1.61558230
  C      4.79275437      0.14781869     -1.75832314
  C      5.07670373     -0.63535930     -0.64596304
  C      5.27733010     -0.04751169      0.59615201
  H      5.51323334     -0.67981775      1.44476174
  H      4.67452312     -0.31020069     -2.73345910
  H      5.17099187     -1.70993888     -0.75295856
  H      4.86391107      3.19225943     -0.28094841
  H      6.67564764     -0.40598485      6.35814006
  C      3.99825357      2.23041025      3.15938683
  C      3.71084529      3.25504532      4.06421617
  C      2.53694315      3.24444266      4.80434916
  C      1.61864897      2.21663905      4.63852961
  C      1.88065007      1.20312858      3.72553872
  C      3.06438951      1.20904490      3.00272062
  H      0.70555514      2.19840217      5.22283499
  H      1.17893257      0.38648448      3.59845930
  H      3.27272021      0.39036700      2.32257009
  H      4.49528499      2.15003252     -2.47867646
  H      2.33996643      4.03684753      5.51743360
  H      4.42320723      4.06230863      4.19565431
