246
Energy =   -372.45014852 au
 Au      0.28828284     -0.53883735      0.50275820
 Au     -1.72793318      1.16826446     -0.45593981
 Au     -1.27314206     -1.34483047     -1.64362751
 Au      0.21678484      3.44307360     -0.75568479
 Au      0.39236116     -1.09982269      3.04047147
 Au      0.39289770      0.80852069     -1.96592663
 Au     -1.40981310      3.03143883     -2.68961050
 Au      2.41374647     -1.72805025      1.44064853
  P     -3.75245933      1.74075558      0.66282412
  C     -5.13528301      0.64673321      0.20977575
  C     -6.37849742      0.72325995      0.84599628
  C     -7.40933352     -0.12606712      0.47664755
  C     -7.21704200     -1.06460278     -0.52927545
  C     -5.98491055     -1.15631206     -1.16102309
  C     -4.95229206     -0.30919484     -0.78982633
  H     -8.02455229     -1.72801361     -0.81553727
  H     -6.53475429      1.44860515      1.63671682
  H     -3.98586654     -0.39474945     -1.27522459
  H     -5.82354900     -1.89284763     -1.94022635
  C     -4.28046229      3.41048455      0.17878320
  C     -3.38280699      4.45796998      0.41499669
  C     -3.66737466      5.74306296     -0.01461430
  C     -4.84964871      6.00134946     -0.69700054
  C     -5.74612768      4.97056332     -0.93729208
  C     -5.46569677      3.68307059     -0.50367990
  H     -6.17148695      2.88568797     -0.70420592
  H     -5.06878788      7.00479032     -1.04219334
  H     -6.66880065      5.16473022     -1.47206953
  H     -2.45374750      4.25607020      0.93891985
  H     -8.36807337     -0.05609188      0.97707206
  C     -3.85468458      1.73172030      2.48297320
  C     -3.44065581      0.57260314      3.14592595
  C     -3.57552353      0.46065907      4.51983472
  C     -4.09461640      1.51768227      5.25656093
  C     -4.47403668      2.68623073      4.61236155
  C     -4.36317876      2.79260405      3.23329521
  H     -4.19454422      1.43108192      6.33209738
  H     -4.87034005      3.51778574      5.18340100
  H     -4.67895095      3.70367317      2.73861241
  H     -2.96241087      6.54402794      0.17634743
  H     -3.27052344     -0.45216153      5.01823405
  H     -3.01603775     -0.24716928      2.57524610
  P     -2.90316849      2.46098091     -4.48272211
  C     -4.68009618      2.73854824     -4.19017339
  C     -5.32083929      3.90524352     -4.61200967
  C     -6.66034777      4.11609064     -4.32088911
  C     -7.37898340      3.16901056     -3.60385545
  C     -6.74754579      2.01244087     -3.16378559
  C     -5.40647028      1.80468349     -3.44498075
  H     -8.42828093      3.33087791     -3.38745129
  H     -4.77189223      4.64795261     -5.17984029
  H     -4.91782325      0.90328296     -3.09146704
  H     -7.30039398      1.26668694     -2.60332693
  C     -2.83329700      0.71133049     -5.00002866
  C     -1.64425458      0.00765859     -4.80113421
  C     -1.52505446     -1.32118864     -5.17680886
  C     -2.59750915     -1.96875462     -5.77457686
  C     -3.78504706     -1.28220984     -5.98452164
  C     -3.90515385      0.04552694     -5.60111021
  H     -4.84037485      0.56632739     -5.77021613
  H     -2.50637157     -3.00509695     -6.07729442
  H     -4.62534120     -1.78233319     -6.45220792
  H     -0.79502572      0.51324258     -4.35584921
  H     -7.14677921      5.02224413     -4.66280575
  C     -2.56682830      3.38636482     -6.01263401
  C     -2.05249550      4.68013691     -5.88729487
  C     -1.78195980      5.44477422     -7.01197306
  C     -2.01199460      4.92142024     -8.27739680
  C     -2.51365767      3.63397954     -8.41307528
  C     -2.79169786      2.86979416     -7.29047289
  H     -1.79742833      5.51606222     -9.15746473
  H     -2.69150476      3.22152930     -9.39946576
  H     -3.18356505      1.86590047     -7.40844267
  H     -0.59172959     -1.84670240     -5.01206989
  H     -1.39041747      6.44909385     -6.89936125
  H     -1.86280150      5.08483490     -4.89860263
  P      4.42615196     -2.93248594      1.52601981
  C      5.70641401     -2.28566841      2.64445664
  C      5.56444012     -2.45318248      4.02543994
  C      6.46240652     -1.86438849      4.90158637
  C      7.50957192     -1.09199356      4.41590433
  C      7.65459795     -0.91152352      3.04746297
  C      6.75753085     -1.49841796      2.16799234
  H      8.21036587     -0.63270398      5.10283267
  H      4.74982366     -3.05225578      4.41838484
  H      6.88112017     -1.35125730      1.10159849
  H      8.46972222     -0.31124818      2.66018094
  C      5.23604041     -3.20496713     -0.07439623
  C      4.50376079     -2.91401360     -1.22829082
  C      5.04664494     -3.12456520     -2.48552395
  C      6.33690917     -3.62205180     -2.60755003
  C      7.07980879     -3.90524640     -1.46908925
  C      6.53652052     -3.70113440     -0.20977739
  H      7.12725996     -3.92021775      0.67228511
  H      6.76539197     -3.78387939     -3.58963119
  H      8.08933071     -4.28846471     -1.56131668
  H      3.50296076     -2.50468018     -1.13366048
  H      6.34270179     -2.01023526      5.96899200
  C      4.06424536     -4.58882292      2.18971935
  C      3.05853018     -4.68992236      3.15568585
  C      2.72540247     -5.91645598      3.70705953
  C      3.38572337     -7.06545984      3.29219543
  C      4.37644120     -6.97963670      2.32302219
  C      4.71557801     -5.75142867      1.77494129
  H      3.12428469     -8.02649716      3.71892734
  H      4.89028235     -7.87423966      1.99105524
  H      5.48785639     -5.70095904      1.01637411
  H      4.46366544     -2.89216180     -3.36982458
  H      1.94301740     -5.97633360      4.45506663
  H      2.52775262     -3.79719580      3.47064549
  P      1.78224893      3.97518649      1.00079206
  C      0.96169775      4.96041731      2.29249077
  C      1.33388904      4.96577866      3.63885323
  C      0.62124381      5.71769719      4.56148960
  C     -0.46728078      6.47777285      4.15574516
  C     -0.83967846      6.48996184      2.81796177
  C     -0.13242555      5.73521358      1.89704028
  H     -1.02290821      7.06161119      4.88004602
  H      2.18155465      4.37834339      3.97164305
  H     -0.42454136      5.74347959      0.85218791
  H     -1.68507754      7.08533766      2.49268596
  C      3.04351218      5.08459943      0.30534046
  C      3.47991614      4.83448565     -0.99888802
  C      4.44190971      5.64003527     -1.58624687
  C      4.97414980      6.71148656     -0.88181916
  C      4.54252649      6.97292382      0.41166095
  C      3.58456526      6.16543000      1.00495536
  H      3.25081647      6.37608577      2.01479224
  H      5.72230014      7.34546385     -1.34291643
  H      4.95352813      7.81110074      0.96224007
  H      3.05790362      4.00185248     -1.55356223
  H      0.92149530      5.71089652      5.60306178
  C      2.77995319      2.78788312      1.97058193
  C      2.12455348      1.94792956      2.87481531
  C      2.84086006      1.06171938      3.66359587
  C      4.22150057      0.97751042      3.54637705
  C      4.88136208      1.79029665      2.63542874
  C      4.16762807      2.68829208      1.85320081
  H      4.77789154      0.28848794      4.17092485
  H      5.96084198      1.74030538      2.54856190
  H      4.69798306      3.32783281      1.15728413
  H      4.77171000      5.43460486     -2.59829866
  H      2.32074103      0.44869079      4.38968373
  H      1.04697275      2.00858980      2.97671687
  P      2.28696531      0.80651963     -3.41915885
  C      2.21998585     -0.55793863     -4.62341035
  C      2.38585390     -0.40123500     -5.99924959
  C      2.29568563     -1.49855507     -6.84412884
  C      2.04226508     -2.76169874     -6.32925735
  C      1.87295267     -2.92978063     -4.95980752
  C      1.95664405     -1.83443375     -4.11548560
  H      1.97234186     -3.61562953     -6.99261622
  H      2.58408422      0.58084569     -6.41259292
  H      1.81132507     -1.96331428     -3.04731694
  H      1.67035395     -3.91267343     -4.54962645
  C      3.89808100      0.53408808     -2.61925127
  C      4.00328223      0.65720271     -1.23369229
  C      5.21684642      0.44355528     -0.59893448
  C      6.34283389      0.11487315     -1.34031934
  C      6.24885202     -0.01665955     -2.71932178
  C      5.03470898      0.18562850     -3.35587879
  H      4.96395918      0.07108486     -4.43179281
  H      7.29356466     -0.04266045     -0.84467003
  H      7.12397899     -0.28193183     -3.30087474
  H      3.12788166      0.92343744     -0.65017951
  H      2.42536389     -1.36372695     -7.91165757
  C      2.50093460      2.31352112     -4.41301637
  C      1.40288065      2.76681476     -5.15275340
  C      1.47588533      3.94406328     -5.87775245
  C      2.64341090      4.69620249     -5.86641320
  C      3.73556876      4.26234771     -5.12903955
  C      3.66663627      3.08169220     -4.40339843
  H      2.69944167      5.61989592     -6.43009906
  H      4.64985039      4.84443507     -5.11810733
  H      4.52701689      2.75528798     -3.83082788
  H      5.28055692      0.53537547      0.47877438
  H      0.61719780      4.27831572     -6.44866653
  H      0.48466468      2.18849437     -5.15891310
  P     -0.02083359     -1.20222468      5.35256209
  C      1.43341160     -1.79589363      6.26435021
  C      2.37845649     -0.91733079      6.79973568
  C      3.55093159     -1.40204438      7.35970289
  C      3.80264893     -2.76703637      7.38231691
  C      2.87497007     -3.64938024      6.84321547
  C      1.70156129     -3.16847248      6.28489738
  H      4.71771115     -3.14419337      7.82347093
  H      2.19200573      0.15064222      6.79006139
  H      0.97918295     -3.86190892      5.86744002
  H      3.06569781     -4.71628058      6.85851856
  C     -1.35773980     -2.33017778      5.85232966
  C     -2.17535055     -2.86378281      4.85267772
  C     -3.21368670     -3.72472287      5.17231587
  C     -3.44816778     -4.06417196      6.49754274
  C     -2.63660781     -3.54695618      7.49903586
  C     -1.59662026     -2.68776867      7.18195071
  H     -0.96250368     -2.29749513      7.96967939
  H     -4.25970647     -4.73635348      6.75022437
  H     -2.81290859     -3.81657904      8.53381941
  H     -1.98572200     -2.60544299      3.81553509
  H      4.27030140     -0.70896886      7.78043028
  C     -0.41350891      0.41831879      6.08053022
  C     -0.70361316      1.47003551      5.20855477
  C     -0.99738189      2.73528416      5.69120932
  C     -1.00926053      2.96665659      7.05949491
  C     -0.72749545      1.92881297      7.93862861
  C     -0.42980834      0.66382816      7.45648651
  H     -1.23786616      3.95482403      7.44116647
  H     -0.73678531      2.10628548      9.00771522
  H     -0.20517999     -0.13580016      8.15283408
  H     -3.83713305     -4.13246473      4.38445060
  H     -1.21799159      3.53934047      4.99806463
  H     -0.70805633      1.28619801      4.13944247
  P     -2.13209005     -3.56993254     -1.53299727
  C     -0.84699729     -4.62018712     -0.78204747
  C     -1.15663264     -5.74615484     -0.01521707
  C     -0.14731349     -6.50757140      0.55299604
  C      1.18294356     -6.15989273      0.36209035
  C      1.50294079     -5.04185596     -0.39530286
  C      0.49479177     -4.27601625     -0.95929335
  H      1.97005903     -6.75954352      0.80409844
  H     -2.19281249     -6.02547899      0.13878084
  H      0.74735173     -3.40024475     -1.54721589
  H      2.54040957     -4.76681406     -0.54856900
  C     -2.69082577     -4.48956985     -2.99642208
  C     -3.89186395     -4.11732297     -3.61047863
  C     -4.31892939     -4.75574574     -4.76373616
  C     -3.54169684     -5.75618566     -5.33416306
  C     -2.33598981     -6.11410856     -4.74703638
  C     -1.91007938     -5.48579224     -3.58671423
  H     -0.96916323     -5.77473675     -3.13222009
  H     -3.87532796     -6.25338377     -6.23718105
  H     -1.72349669     -6.88954198     -5.19222721
  H     -4.49382218     -3.32433976     -3.17867864
  H     -0.40074097     -7.37837694      1.14629851
  C     -3.50183789     -3.68915707     -0.33933655
  C     -3.48568945     -2.81590621      0.75224415
  C     -4.49708271     -2.84477836      1.69828697
  C     -5.54453693     -3.74712387      1.56797865
  C     -5.57002795     -4.62241981      0.49140353
  C     -4.55716318     -4.59680622     -0.45584691
  H     -6.34029451     -3.76449967      2.30325390
  H     -6.38374738     -5.33040189      0.38577652
  H     -4.58995105     -5.28480228     -1.29252061
  H     -5.25890521     -4.46862875     -5.22069338
  H     -4.47611418     -2.15353520      2.53306971
  H     -2.67299620     -2.10381008      0.85380271
