246
Energy =   -372.45092656 au
 Au      0.18220361     -3.28900167      1.39088143
 Au     -2.04177471      1.75316267     -2.41265739
 Au      1.91357031      1.11941425      0.49113976
 Au     -2.63487005     -0.32997072     -1.00669555
 Au     -2.07676514     -2.60990538      0.44966940
 Au      0.33254975     -0.99234808     -0.48571068
 Au      0.23394351     -0.31893630      2.13859199
 Au     -0.83851449      1.47125097      0.15117075
  P     -1.78526515      2.95843084     -4.43896125
  C     -0.25814655      3.90564166     -4.73822040
  C      0.45402564      3.85987032     -5.93878267
  C      1.60881587      4.61140482     -6.10012504
  C      2.06641128      5.41845089     -5.06756902
  C      1.36956096      5.46598621     -3.86731364
  C      0.21999905      4.71007549     -3.69964110
  H      2.96307918      6.01279303     -5.19787346
  H      0.10155865      3.23882090     -6.75420021
  H     -0.32142835      4.74619326     -2.75891829
  H      1.72439362      6.09628517     -3.06025026
  C     -3.12341373      4.10624479     -4.88443114
  C     -4.43473757      3.63749404     -4.75051860
  C     -5.50861966      4.44981936     -5.07395607
  C     -5.28811293      5.74588285     -5.52487610
  C     -3.99091480      6.22373503     -5.64977924
  C     -2.91217305      5.41099651     -5.33140518
  H     -1.90288658      5.79252571     -5.43363435
  H     -6.12788468      6.38202352     -5.77807984
  H     -3.81494248      7.23407031     -6.00029788
  H     -4.60686335      2.62696502     -4.39356134
  H      2.14866150      4.57005545     -7.03897730
  C     -1.87651832      1.72838533     -5.77611001
  C     -1.66175051      0.38430539     -5.46546993
  C     -1.76086740     -0.59543161     -6.44016322
  C     -2.07263200     -0.24386197     -7.74628488
  C     -2.29089089      1.08898182     -8.06947369
  C     -2.20020367      2.06895289     -7.09332816
  H     -2.15140277     -1.00831280     -8.51026177
  H     -2.54042781      1.36677392     -9.08686262
  H     -2.39429461      3.10423137     -7.35043454
  H     -6.51977016      4.07278860     -4.97301783
  H     -1.59233220     -1.63403577     -6.17805439
  H     -1.41373574      0.10647042     -4.44651272
  P     -4.40320372     -2.33210257     -0.34020408
  C     -5.19524885     -3.43613642      0.87503599
  C     -6.27494975     -3.05847611      1.67368712
  C     -6.77447719     -3.92893806      2.63179370
  C     -6.20424282     -5.18240629      2.80540578
  C     -5.12813179     -5.56810160      2.01584374
  C     -4.62332239     -4.69954613      1.06282034
  H     -6.59649432     -5.85857021      3.55577190
  H     -6.72978621     -2.08300824      1.54707850
  H     -3.77988386     -4.99867148      0.45002877
  H     -4.67778041     -6.54519438      2.14676891
  C     -4.77716123     -3.06631669     -1.96014675
  C     -4.18030190     -2.50380444     -3.09181780
  C     -4.40821841     -3.02715915     -4.35299572
  C     -5.22985797     -4.13793483     -4.50187782
  C     -5.82233043     -4.71185087     -3.38580319
  C     -5.60150951     -4.18190743     -2.12338871
  H     -6.07457515     -4.63680456     -1.26116793
  H     -5.40616543     -4.55407747     -5.48663365
  H     -6.46420144     -5.57794407     -3.49705100
  H     -3.52953194     -1.64228262     -2.97648155
  H     -7.61496385     -3.62446212      3.24458611
  C     -5.40818074     -0.80975942     -0.28180392
  C     -5.24534029      0.04144593      0.81795934
  C     -5.94115651      1.23738622      0.89201824
  C     -6.79097212      1.61307640     -0.14098615
  C     -6.94766048      0.78318348     -1.24222334
  C     -6.26453629     -0.42153078     -1.31339555
  H     -7.32991107      2.55158066     -0.08540366
  H     -7.60818287      1.07247535     -2.05141524
  H     -6.39762968     -1.06370872     -2.17581620
  H     -3.94228103     -2.57028109     -5.21879501
  H     -5.82191735      1.87779240      1.75809452
  H     -4.57189905     -0.24316799      1.61957910
  P     -1.69576759      3.51730402      1.11859043
  C     -0.57826117      4.67863107      1.97525632
  C     -0.99409209      5.93445235      2.42812033
  C     -0.11327920      6.76221055      3.10637558
  C      1.19078486      6.35043956      3.35061629
  C      1.61528693      5.10583527      2.90737430
  C      0.73650950      4.28121445      2.22233968
  H      1.87496313      6.99999863      3.88347431
  H     -2.01004183      6.26671723      2.24929208
  H      1.07768557      3.31455114      1.86578121
  H      2.63255864      4.77706701      3.08793834
  C     -2.94909150      3.11410353      2.38100455
  C     -2.94612031      1.83672016      2.94251018
  C     -3.86676304      1.48288509      3.91610391
  C     -4.81061463      2.40678081      4.34301235
  C     -4.83135599      3.67933405      3.78619526
  C     -3.91092409      4.03221017      2.81172875
  H     -3.94535822      5.02450246      2.37707273
  H     -5.53052011      2.13521725      5.10586721
  H     -5.57017288      4.40210490      4.11202777
  H     -2.21165456      1.11122565      2.61011820
  H     -0.44819269      7.73455044      3.44817974
  C     -2.62452058      4.52251881     -0.07608958
  C     -2.11324827      5.69339513     -0.63818324
  C     -2.82014651      6.36850262     -1.62260811
  C     -4.04038992      5.87917054     -2.06565119
  C     -4.54641753      4.69958474     -1.53452075
  C     -3.84178287      4.02172597     -0.55341790
  H     -4.59472857      6.41259433     -2.82869599
  H     -5.49358524      4.30626198     -1.88573781
  H     -4.24559233      3.10502703     -0.13641352
  H     -3.84373776      0.48635649      4.34273376
  H     -2.41582946      7.28246575     -2.04211819
  H     -1.16339491      6.08729329     -0.29534455
  P      3.77840312      2.43700197     -0.21277893
  C      3.48805307      4.23016725     -0.12669080
  C      4.45390614      5.13475003      0.31957773
  C      4.16623674      6.48916276      0.39406125
  C      2.91377489      6.95925632      0.02479092
  C      1.94623371      6.06876474     -0.42116746
  C      2.22837956      4.71360252     -0.49323479
  H      2.68864874      8.01726019      0.08799465
  H      5.43442721      4.77708772      0.61155162
  H      1.46559602      4.01867957     -0.83055778
  H      0.96265121      6.43078132     -0.69739291
  C      4.24276464      2.12978734     -1.94289200
  C      4.63397694      0.83311198     -2.29358864
  C      4.93577527      0.51483219     -3.60714524
  C      4.83551859      1.48490159     -4.59621945
  C      4.42965676      2.76988801     -4.26288881
  C      4.13287771      3.09312572     -2.94686360
  H      3.81557765      4.10020093     -2.70182554
  H      5.06640182      1.23759162     -5.62560499
  H      4.34281167      3.52907251     -5.03176864
  H      4.69858819      0.07065056     -1.52545721
  H      4.92455297      7.17985475      0.74384902
  C      5.27874262      2.17004109      0.77648803
  C      5.14155469      2.29005315      2.16486062
  C      6.22007297      2.06007299      3.00317637
  C      7.44725379      1.68707834      2.46775493
  C      7.59130305      1.55829074      1.09352190
  C      6.51666572      1.80028832      0.24997514
  H      8.29035104      1.50127272      3.12253841
  H      8.54771073      1.27095576      0.67234927
  H      6.64447677      1.70460574     -0.82198259
  H      5.24174297     -0.49417140     -3.85973291
  H      6.10198908      2.16665189      4.07538761
  H      4.18069805      2.57338445      2.58371474
  P      2.14292068     -4.37804841      2.22893180
  C      1.78867670     -5.20491138      3.81428517
  C      2.77511959     -5.80409548      4.60216365
  C      2.44076250     -6.41742660      5.79946772
  C      1.11969009     -6.44522775      6.22743019
  C      0.13034477     -5.85787560      5.45192615
  C      0.46356712     -5.24044457      4.25627241
  H      0.86261366     -6.92505669      7.16434277
  H      3.80917709     -5.79283147      4.27804866
  H     -0.31030503     -4.77764392      3.65303421
  H     -0.90331431     -5.87471520      5.77819049
  C      3.63532282     -3.37773728      2.54294809
  C      3.46979361     -1.99746531      2.66559317
  C      4.54933404     -1.16252542      2.89759563
  C      5.82503609     -1.69897299      3.00747260
  C      6.00728750     -3.07082344      2.89086162
  C      4.92389959     -3.90596202      2.65997641
  H      5.08530084     -4.97294056      2.56068040
  H      6.67399508     -1.04776279      3.18149911
  H      7.00088843     -3.49498075      2.97714012
  H      2.47488719     -1.57314713      2.57972700
  H      3.21616019     -6.87774682      6.40061245
  C      2.70647528     -5.75230920      1.17904797
  C      2.03108956     -6.97536592      1.23219119
  C      2.35477604     -7.99803253      0.35445320
  C      3.35019210     -7.81410516     -0.59683147
  C      4.02065448     -6.60049634     -0.66610955
  C      3.69731161     -5.57495134      0.20985843
  H      3.60208743     -8.61464666     -1.28216576
  H      4.79775889     -6.44631001     -1.40620858
  H      4.22389436     -4.63042908      0.14428592
  H      4.39401487     -0.09359717      2.99011664
  H      1.82819668     -8.94346060      0.41405893
  H      1.25056392     -7.12686883      1.96981182
  P      1.30296458     -2.17562853     -2.33348199
  C      3.06213775     -2.58375664     -2.08057234
  C      3.81554606     -3.24067093     -3.05833022
  C      5.16647707     -3.47921823     -2.86258493
  C      5.78952860     -3.05883225     -1.69406450
  C      5.05205057     -2.40877311     -0.71391732
  C      3.69670518     -2.17671076     -0.90675063
  H      6.84812485     -3.23749036     -1.54755300
  H      3.34089824     -3.56246198     -3.97848220
  H      3.12429115     -1.67282862     -0.13562901
  H      5.53065249     -2.07683330      0.20022676
  C      1.35846984     -1.32147319     -3.94056112
  C      1.52826048      0.06513472     -3.92454020
  C      1.67456980      0.77091449     -5.10750198
  C      1.64173207      0.10299454     -6.32408565
  C      1.45434289     -1.27228993     -6.35220536
  C      1.31458667     -1.98346749     -5.16945141
  H      1.16995254     -3.05725488     -5.20110445
  H      1.75646490      0.65542409     -7.24929436
  H      1.42120648     -1.79657358     -7.30011470
  H      1.55580977      0.59024826     -2.97487246
  H      5.73804156     -3.99012714     -3.62854885
  C      0.48386831     -3.76409062     -2.63740035
  C      1.00164856     -4.95970415     -2.13529711
  C      0.27317910     -6.13565406     -2.22832089
  C     -0.98332333     -6.13290627     -2.81752809
  C     -1.51162401     -4.94781998     -3.31359946
  C     -0.78973352     -3.76956263     -3.21623880
  H     -1.55336198     -7.05177672     -2.88786726
  H     -2.49348237     -4.93971415     -3.77294885
  H     -1.21415837     -2.84310574     -3.58996332
  H      1.81854774      1.84448170     -5.07852808
  H      0.68998262     -7.05561065     -1.83397528
  H      1.98089842     -4.96858761     -1.67023665
  P     -0.10757346     -0.47692519      4.50141980
  C      1.43278479     -0.86593713      5.38443859
  C      2.29165189      0.15137965      5.80875229
  C      3.53065302     -0.15542757      6.34943148
  C      3.93321917     -1.47869785      6.47212237
  C      3.09063529     -2.49676257      6.04810922
  C      1.85526247     -2.19288670      5.49899344
  H      4.90256888     -1.71532493      6.89454538
  H      1.98822789      1.18862947      5.71953353
  H      1.20939106     -2.99154770      5.15360131
  H      3.39727738     -3.53313444      6.13477177
  C     -1.30923541     -1.74902907      4.99667100
  C     -2.34767451     -2.04227836      4.10869337
  C     -3.30766030     -2.98968895      4.42475199
  C     -3.24456600     -3.66046411      5.63869826
  C     -2.22458916     -3.37130104      6.53537078
  C     -1.26436757     -2.42066681      6.22150013
  H     -0.47475114     -2.20147076      6.93084193
  H     -3.99149196     -4.40546707      5.88650748
  H     -2.17723070     -3.88512101      7.48843537
  H     -2.40021428     -1.52197453      3.15771008
  H      4.18518957      0.64429525      6.67656958
  C     -0.71398383      1.03823865      5.31071304
  C     -0.27078916      2.27132022      4.82555017
  C     -0.70915443      3.45491256      5.39794661
  C     -1.60965945      3.42414165      6.45357857
  C     -2.06216973      2.20507364      6.93917279
  C     -1.61683483      1.01905233      6.37588993
  H     -1.96006479      4.34955505      6.89512487
  H     -2.76653771      2.17537741      7.76229915
  H     -1.97682554      0.07395546      6.76556258
  H     -4.10462082     -3.20436314      3.72226406
  H     -0.35206462      4.40368527      5.01466568
  H      0.41539800      2.29929810      3.98571904
