246
Energy =   -372.39695075 au
 Au     -1.41027129      1.88977906      0.43343334
 Au     -0.88329621     -0.39979488      1.75459535
 Au     -1.74231164     -0.45287512     -0.69337728
 Au     -0.95614266     -2.66488523     -2.18309393
 Au      1.10408696     -3.67525830     -1.12038714
 Au     -3.77094389     -2.19470898     -1.87253970
 Au     -4.33509627      0.42927049     -1.91961245
 Au     -2.39993576     -0.54758760     -3.48987447
  P     -4.13851256     -4.09873585     -0.48256481
  C     -2.69089675     -5.19602898     -0.58463435
  C     -1.74158003     -5.28862612      0.43419354
  C     -0.60151790     -6.06067203      0.26428686
  C     -0.38736664     -6.74195506     -0.92736210
  C     -1.31960453     -6.64676344     -1.95257659
  C     -2.45874217     -5.87593854     -1.78560761
  H      0.50447095     -7.34444710     -1.05421935
  H     -1.89019740     -4.75782036      1.36730426
  H     -3.18103448     -5.79942069     -2.59114376
  H     -1.15748199     -7.17264791     -2.88608204
  C     -5.57138240     -5.18222021     -0.74940861
  C     -6.77584691     -4.58464754     -1.13302357
  C     -7.91064532     -5.35473826     -1.32916240
  C     -7.85510349     -6.73095005     -1.15200298
  C     -6.66204674     -7.33428766     -0.77830979
  C     -5.52431441     -6.56818658     -0.57638758
  H     -4.59535352     -7.04830957     -0.29072402
  H     -8.74148979     -7.33390969     -1.30976541
  H     -6.61459287     -8.40862201     -0.64359552
  H     -6.81770594     -3.50981747     -1.27897383
  H      0.11769157     -6.13690480      1.07141122
  C     -4.20135120     -3.67832057      1.29062113
  C     -3.95774878     -2.36721517      1.69832774
  C     -3.91848576     -2.03708463      3.04411734
  C     -4.13594227     -3.01523489      4.00416266
  C     -4.40421792     -4.32019676      3.61156204
  C     -4.43797108     -4.65176927      2.26633880
  H     -4.10178809     -2.75833361      5.05652942
  H     -4.58504893     -5.08474455      4.35805289
  H     -4.64629918     -5.67328961      1.96829364
  H     -8.83886274     -4.88028760     -1.62579403
  H     -3.72087963     -1.01408057      3.34310674
  H     -3.79816703     -1.59829190      0.95125942
  P     -0.58170830      0.20013617     -4.84962697
  C     -0.29589251      1.99701911     -4.84563422
  C      0.86500139      2.55050356     -5.39705427
  C      1.06158120      3.92170084     -5.38186959
  C      0.11357439      4.75750237     -4.80439822
  C     -1.03012965      4.21668068     -4.23513440
  C     -1.23366011      2.84536130     -4.25756790
  H      0.27196254      5.82936724     -4.79060874
  H      1.61581646      1.90245054     -5.83548034
  H     -2.12900036      2.42248992     -3.81379982
  H     -1.76706450      4.86416165     -3.77344098
  C     -0.60375089     -0.31600141     -6.58775764
  C     -0.73663258     -1.68635106     -6.84458367
  C     -0.79891905     -2.15472285     -8.14621745
  C     -0.74736095     -1.26140625     -9.20885726
  C     -0.63721989      0.09991947     -8.96404086
  C     -0.56860483      0.57420407     -7.66240558
  H     -0.48686317      1.64002641     -7.48341057
  H     -0.80027701     -1.62712747    -10.22744119
  H     -0.60585915      0.80039577     -9.79043306
  H     -0.79207543     -2.38358443     -6.01423064
  H      1.96122334      4.34011811     -5.81798038
  C      1.00900298     -0.40638765     -4.19582138
  C      1.28586739     -0.14337869     -2.85092616
  C      2.46554029     -0.57832829     -2.27253090
  C      3.39389130     -1.27973857     -3.03332637
  C      3.13043005     -1.54363228     -4.36988804
  C      1.94584101     -1.11280692     -4.94955669
  H      4.32139173     -1.61412790     -2.58401306
  H      3.85431617     -2.08273946     -4.96966538
  H      1.75344034     -1.32463133     -5.99467030
  H     -0.89376266     -3.21829674     -8.33175527
  H      2.67937840     -0.34274027     -1.23567948
  H      0.56807512      0.41294651     -2.25673422
  P      4.72745094      1.48189685     -0.74148297
  C      5.13919203      2.62738334      0.64212076
  C      5.99214421      2.26947824      1.68873274
  C      6.21546367      3.13155135      2.75256225
  C      5.58890447      4.36965910      2.79377983
  C      4.71845821      4.73086718      1.77287044
  C      4.48105591      3.86127390      0.71923473
  H      5.77744853      5.05095462      3.61526856
  H      6.49790086      1.31053155      1.66744176
  H      3.78792013      4.14881657     -0.06462968
  H      4.22672918      5.69711439      1.79397155
  C      5.15893196      2.53093199     -2.20445380
  C      4.77438161      2.03637091     -3.45631861
  C      5.01104750      2.75689886     -4.61652508
  C      5.63808809      3.99425804     -4.54856952
  C      6.03687382      4.49294013     -3.31622539
  C      5.80156460      3.76883613     -2.15547656
  H      6.12138896      4.18001863     -1.20514884
  H      5.81956499      4.56396118     -5.45244996
  H      6.53748451      5.45266244     -3.25557250
  H      4.28542746      1.06991844     -3.51979297
  H      6.89057015      2.83835631      3.54866223
  C      6.24116018      0.42135218     -0.73581813
  C      6.09380741     -0.93670848     -0.44976837
  C      7.19222568     -1.78317528     -0.42463289
  C      8.45728059     -1.28621229     -0.70174280
  C      8.61755705      0.06100779     -0.99923565
  C      7.52077905      0.90815904     -1.01458005
  H      9.31654736     -1.94668867     -0.68711199
  H      9.60362266      0.45400492     -1.21915245
  H      7.65990189      1.95833252     -1.24671842
  H      4.70192634      2.35323972     -5.57457538
  H      7.05728199     -2.83306812     -0.18974441
  H      5.10635638     -1.33100575     -0.23455351
  P     -0.76843431      4.15294103      0.67445743
  C     -1.95721527      5.52282260      0.51718447
  C     -2.17596000      6.46255675      1.52592726
  C     -3.10684580      7.47638257      1.35035978
  C     -3.82781841      7.56574437      0.16813236
  C     -3.62030154      6.63272344     -0.83999762
  C     -2.69894344      5.61320731     -0.66468056
  H     -4.55102992      8.36074535      0.03039958
  H     -1.61453626      6.40448296      2.45100667
  H     -2.54779642      4.87973403     -1.45069096
  H     -4.17873956      6.70002421     -1.76642853
  C      0.47857199      4.54464909     -0.58489755
  C      1.10046283      3.48724049     -1.25090178
  C      2.06214866      3.72720969     -2.21685355
  C      2.43259258      5.03095595     -2.51973100
  C      1.81700908      6.09227116     -1.86991640
  C      0.83930215      5.85443010     -0.91582854
  H      0.34767962      6.68898210     -0.42886607
  H      3.19560107      5.21729998     -3.26657045
  H      2.09563418      7.11165874     -2.11011374
  H      0.82106602      2.46715792     -1.00950665
  H     -3.26382880      8.20175864      2.14009802
  C      0.05193100      4.46265390      2.26906262
  C     -0.50528569      3.86647058      3.40338824
  C      0.04588580      4.07427874      4.65723066
  C      1.17253366      4.87398724      4.79389575
  C      1.74228190      5.46163766      3.67291379
  C      1.18880421      5.25880961      2.41753301
  H      1.60783989      5.03557690      5.77289932
  H      2.62277848      6.08486576      3.77585760
  H      1.64319660      5.72293525      1.55005080
  H      2.51892176      2.89454362     -2.73790944
  H     -0.40119629      3.60980714      5.52863048
  H     -1.38226114      3.23774851      3.29162403
  P     -0.04899894     -0.81776086      3.90936994
  C      0.62860876     -2.47342728      4.22709719
  C      1.87924261     -2.70980692      4.79724651
  C      2.29582760     -4.00674806      5.05713247
  C      1.47046329     -5.08054168      4.75345481
  C      0.23550615     -4.85826462      4.15520721
  C     -0.17853476     -3.56448046      3.88525670
  H      1.78684159     -6.09038464      4.98638109
  H      2.52961667     -1.87892529      5.04419615
  H     -1.14172221     -3.39051397      3.41542578
  H     -0.40669753     -5.69467885      3.90315592
  C     -1.24394084     -0.57160410      5.26098032
  C     -1.80399743      0.70336793      5.39121902
  C     -2.75518664      0.96382279      6.36341183
  C     -3.17109589     -0.05118067      7.21584022
  C     -2.62637511     -1.32140133      7.09266716
  C     -1.66951170     -1.58361017      6.12194208
  H     -1.24977321     -2.57944015      6.04164359
  H     -3.91680174      0.14932771      7.97590523
  H     -2.94238853     -2.11533265      7.75934244
  H     -1.47599551      1.49524445      4.72730160
  H      3.26684527     -4.17767538      5.50736765
  C      1.26198043      0.37936323      4.28684498
  C      1.75548333      1.17461846      3.24994527
  C      2.74960001      2.11038647      3.48389141
  C      3.26946371      2.26267056      4.76161073
  C      2.77909255      1.48846670      5.80500332
  C      1.77816731      0.55702596      5.57432737
  H      4.05079845      2.99159712      4.94245886
  H      3.17457553      1.61337199      6.80628384
  H      1.38712849     -0.03001460      6.39770849
  H     -3.17206295      1.96021009      6.45607562
  H      3.11015521      2.72601227      2.66842862
  H      1.34629013      1.06331672      2.25149522
  P      3.05792548     -4.56864651     -0.16380335
  C      2.97462455     -6.26143684      0.49097658
  C      3.21124734     -7.35381893     -0.34878426
  C      3.05666311     -8.64874118      0.12176350
  C      2.65465873     -8.87265474      1.43172789
  C      2.40385452     -7.79510824      2.27012191
  C      2.55445185     -6.49840652      1.80249965
  H      2.53610149     -9.88525050      1.79864295
  H      3.52866365     -7.18799706     -1.37221800
  H      2.35643628     -5.66072270      2.46188812
  H      2.08826029     -7.96348670      3.29358420
  C      3.71035110     -3.55737502      1.20095853
  C      3.29102702     -2.22699402      1.27675358
  C      3.81864199     -1.36918713      2.22926110
  C      4.76030300     -1.83399781      3.13696699
  C      5.16131884     -3.16288525      3.09344728
  C      4.64419146     -4.01895186      2.13294270
  H      4.96686636     -5.05331563      2.11111033
  H      5.17841543     -1.16202467      3.87733729
  H      5.88831907     -3.53427437      3.80631518
  H      2.54627294     -1.86365633      0.57629866
  H      3.25247243     -9.48610205     -0.53784552
  C      4.42509879     -4.66938930     -1.36087533
  C      4.14598594     -4.45544505     -2.71160661
  C      5.14872873     -4.54766469     -3.66511668
  C      6.44612922     -4.85318993     -3.28003410
  C      6.73457141     -5.07815513     -1.94022882
  C      5.73310556     -4.99026964     -0.98621626
  H      7.23161706     -4.92156357     -4.02330645
  H      7.74453327     -5.32687719     -1.63590024
  H      5.96828234     -5.17818922      0.05484012
  H      3.49952670     -0.33385585      2.25759626
  H      4.91472427     -4.38378344     -4.71078759
  H      3.13124093     -4.21820584     -3.01325166
  P     -5.64988391      2.12922867     -0.92920822
  C     -7.34530768      1.60105046     -0.54629489
  C     -8.05572721      2.05924090      0.56643183
  C     -9.35421320      1.62831652      0.79117552
  C     -9.95777245      0.73775261     -0.08602583
  C     -9.25798071      0.27214411     -1.19139160
  C     -7.95955060      0.69803097     -1.41849036
  H    -10.97269476      0.40337890      0.09346998
  H     -7.59075683      2.75001832      1.26055149
  H     -7.41090879      0.32998967     -2.27948076
  H     -9.72346949     -0.42640249     -1.87692469
  C     -5.85479156      3.63742913     -1.92106128
  C     -4.92875651      3.89238226     -2.93462134
  C     -5.04478869      5.02073446     -3.73109469
  C     -6.09218249      5.90958146     -3.52412854
  C     -7.02268102      5.66287621     -2.52281221
  C     -6.90995275      4.53355863     -1.72705573
  H     -7.65036287      4.33874903     -0.95941035
  H     -6.18867848      6.78870951     -4.15010433
  H     -7.84505701      6.35061661     -2.36437411
  H     -4.11756766      3.19103087     -3.10082540
  H     -9.89634974      1.99091330      1.65680088
  C     -5.01582692      2.68915736      0.68403615
  C     -4.49602155      1.71477155      1.54195043
  C     -4.04124366      2.05511134      2.80648064
  C     -4.09664284      3.37626358      3.23228460
  C     -4.60029704      4.35243954      2.38449493
  C     -5.05330742      4.01476859      1.11744600
  H     -3.75620953      3.64170711      4.22626339
  H     -4.64391338      5.38497645      2.71080905
  H     -5.44066368      4.78750924      0.46346476
  H     -4.32243084      5.20248581     -4.51853761
  H     -3.65410456      1.28528545      3.46422071
  H     -4.47323381      0.67936810      1.22033677
