#B3LYP/6-31+G(d) OPT FREQ

246, Energy =   -372.42153254 au

0 1
 Au     -1.74304663      0.68779819     -2.31819278
 Au     -0.25446679      0.07663836      0.00048442
 Au     -0.42786107      4.40834760      0.38662698
 Au     -0.83251226      2.18560174      1.93408067
 Au      1.06126507      0.04629351      2.29353522
 Au      1.36267604      2.33043653      0.47335001
 Au      0.06691448     -1.23668288     -2.54475679
 Au     -2.10738643     -1.70563137     -0.96521599
  P     -2.77487016      2.81321249     -2.51950146
  C     -1.59827788      4.06460261     -3.11447434
  C     -1.94287699      5.20873251     -3.83478589
  C     -0.96907098      6.12990696     -4.19571005
  C      0.35728538      5.92504523     -3.84110897
  C      0.71504446      4.78161062     -3.13952303
  C     -0.25448814      3.85671152     -2.78729937
  H      1.11336062      6.65002995     -4.11862142
  H     -2.97239193      5.37786875     -4.12707894
  H      0.03121212      2.94880643     -2.26785955
  H      1.74962198      4.60648067     -2.86789191
  C     -3.33724474      3.49186377     -0.92641422
  C     -3.92569623      2.60813617     -0.01977181
  C     -4.49638167      3.07479525      1.15352828
  C     -4.48152852      4.43421496      1.43676420
  C     -3.85131926      5.31598166      0.57129578
  C     -3.27604035      4.85092580     -0.60410895
  H     -2.81397233      5.55051575     -1.28967236
  H     -4.95741388      4.80440166      2.33651142
  H     -3.81610175      6.37371123      0.80387385
  H     -3.94732783      1.54815117     -0.24973127
  H     -1.25109393      7.01430282     -4.75496197
  C     -4.28775813      2.94061138     -3.51670169
  C     -4.65250986      1.84486341     -4.30155222
  C     -5.80872771      1.87575520     -5.06553294
  C     -6.61877944      3.00273459     -5.05077634
  C     -6.27785009      4.09025346     -4.25717358
  C     -5.12579055      4.05986773     -3.48764517
  H     -7.52212015      3.02964897     -5.64859333
  H     -6.91679590      4.96525147     -4.23081255
  H     -4.88529828      4.90220795     -2.84894080
  H     -4.96336587      2.37874118      1.84136222
  H     -6.07900422      1.01703929     -5.66914841
  H     -4.02168254      0.96208785     -4.30715860
  P     -2.01441905      2.39873070      4.00430166
  C     -0.85996564      2.39009743      5.42187417
  C      0.09130298      3.41234983      5.50444880
  C      0.99362252      3.45994578      6.55430899
  C      0.97381040      2.47748849      7.53621184
  C      0.05913919      1.43736619      7.44606357
  C     -0.84614001      1.39090855      6.39557749
  H      1.66896241      2.52240404      8.36623510
  H      0.12041683      4.18593833      4.74569972
  H     -1.54686699      0.56708530      6.34117812
  H      0.04037082      0.65916064      8.20063940
  C     -3.25781278      1.12863174      4.38775725
  C     -3.57909013      0.21834799      3.37833035
  C     -4.51337881     -0.78196089      3.59510258
  C     -5.14245271     -0.89096099      4.82763399
  C     -4.83101136      0.00510643      5.84181507
  C     -3.89618669      1.00660664      5.62722791
  H     -3.65657102      1.69092052      6.43252400
  H     -5.87248477     -1.67376087      4.99709242
  H     -5.31672705     -0.07673965      6.80713793
  H     -3.08404022      0.29534280      2.41533733
  H      1.70750355      4.27350318      6.61258714
  C     -2.84657880      4.01063672      4.22672840
  C     -2.19082426      5.14637559      3.74185087
  C     -2.74173842      6.40806900      3.89551858
  C     -3.97013448      6.55709331      4.52512475
  C     -4.64507151      5.43583592      4.98718136
  C     -4.09052276      4.17230375      4.83970476
  H     -4.40433421      7.54235031      4.64595076
  H     -5.61088696      5.54140688      5.46747145
  H     -4.64153624      3.31122675      5.19728665
  H     -4.74991804     -1.47978875      2.80060472
  H     -2.21262059      7.27501275      3.51723647
  H     -1.24425723      5.04019139      3.22302065
  P     -3.75262499     -3.15418413     -0.07362321
  C     -5.42092403     -2.45439489      0.09962780
  C     -6.58681915     -3.22289133      0.06494386
  C     -7.82532367     -2.61902991      0.22121476
  C     -7.91734836     -1.24664878      0.41012542
  C     -6.76527877     -0.47184723      0.43480860
  C     -5.52690938     -1.07244246      0.27666089
  H     -8.88760397     -0.77949639      0.53076509
  H     -6.52553746     -4.29367175     -0.09294480
  H     -4.62511264     -0.46842669      0.28325567
  H     -6.83035506      0.60150953      0.57275874
  C     -3.32154409     -3.75462425      1.58964573
  C     -1.96685745     -3.83592164      1.92201228
  C     -1.57006850     -4.29569985      3.16692166
  C     -2.52358618     -4.67112118      4.10413166
  C     -3.87298080     -4.58510139      3.78997891
  C     -4.27242956     -4.13157925      2.54143044
  H     -5.32881569     -4.06723461      2.30649863
  H     -2.21381175     -5.02566174      5.08014038
  H     -4.62048511     -4.87343511      4.51986839
  H     -1.21990939     -3.53457988      1.19460721
  H     -8.72371855     -3.22453066      0.19304135
  C     -3.97687153     -4.66603709     -1.05733437
  C     -3.75274070     -4.58250610     -2.43431190
  C     -3.89271635     -5.69973343     -3.24141672
  C     -4.25523878     -6.91802284     -2.68243704
  C     -4.47568822     -7.01452460     -1.31518006
  C     -4.33585330     -5.89823650     -0.50393793
  H     -4.36179378     -7.79344224     -3.31207063
  H     -4.75537553     -7.96465129     -0.87521537
  H     -4.49990756     -5.98531187      0.56409045
  H     -0.51477498     -4.35509601      3.40799274
  H     -3.71421277     -5.62008574     -4.30761193
  H     -3.46236762     -3.63173468     -2.87028283
  P      1.73241427     -3.07493191     -2.37507825
  C      2.51006207     -3.60504816     -3.93539055
  C      3.49132822     -2.79860560     -4.51977776
  C      4.06381286     -3.14838296     -5.73237230
  C      3.64924380     -4.29690072     -6.39346827
  C      2.66293223     -5.09564190     -5.83266231
  C      2.09630983     -4.75438021     -4.61396751
  H      4.09436119     -4.56777275     -7.34342302
  H      3.81119692     -1.89288516     -4.01620522
  H      1.32851274     -5.38835719     -4.18543015
  H      2.33135983     -5.99136670     -6.34486435
  C      1.13867754     -4.65821407     -1.67506870
  C     -0.19405302     -4.80748566     -1.29604793
  C     -0.64833451     -5.99105763     -0.73426858
  C      0.22463948     -7.05342467     -0.55312956
  C      1.55350994     -6.92563562     -0.93747761
  C      2.00870531     -5.73927776     -1.48953685
  H      3.04971134     -5.65109354     -1.77805928
  H     -0.12906771     -7.97910967     -0.11493365
  H      2.24068789     -7.75282583     -0.80333456
  H     -0.88733798     -3.98591636     -1.44450217
  H      4.83703182     -2.52147323     -6.16121687
  C      3.17169143     -2.73632773     -1.29687146
  C      2.99020261     -1.88016312     -0.21132915
  C      4.02294612     -1.61394946      0.67349844
  C      5.26265055     -2.20789710      0.48990321
  C      5.46119686     -3.05950049     -0.58879065
  C      4.42917574     -3.32057205     -1.47786032
  H      6.07281502     -2.00259077      1.17959447
  H      6.42858376     -3.52313288     -0.74294043
  H      4.60802809     -3.97705931     -2.32125382
  H     -1.68668764     -6.08316481     -0.43796671
  H      3.85477253     -0.93490363      1.50210161
  H      2.02487228     -1.41114802     -0.06102930
  P      3.65289365      2.94689984      0.18910674
  C      3.78924159      4.71200295     -0.23553984
  C      3.53167565      5.68469152      0.73421122
  C      3.50332613      7.02804605      0.39561193
  C      3.72013301      7.42206538     -0.91795003
  C      3.96636657      6.46493644     -1.89240756
  C      3.99465784      5.11971710     -1.55657890
  H      3.69719969      8.47277321     -1.18160934
  H      3.35803548      5.38756570      1.76265018
  H      4.19067547      4.38119636     -2.32606845
  H      4.13721197      6.76430941     -2.92015858
  C      4.84553042      2.11987079     -0.91073470
  C      4.51123444      0.86752605     -1.42757181
  C      5.40347113      0.17126134     -2.22814340
  C      6.63948945      0.72260705     -2.53394705
  C      6.97523964      1.97816350     -2.04466536
  C      6.08735992      2.67446082     -1.23934310
  H      6.35489952      3.65867552     -0.87241586
  H      7.33679510      0.17832937     -3.15994540
  H      7.93460026      2.41818884     -2.29067369
  H      3.53969826      0.44083205     -1.20198244
  H      3.31030017      7.77034332      1.16144511
  C      4.40355426      2.86003352      1.84785297
  C      3.55272979      2.99582842      2.94889258
  C      4.05319923      2.99415754      4.24017486
  C      5.41755889      2.85516099      4.45286053
  C      6.27067238      2.68927723      3.37095202
  C      5.76962492      2.68915014      2.07816378
  H      5.81394290      2.86621317      5.46105799
  H      7.33495922      2.56345218      3.53301583
  H      6.44999993      2.55695820      1.24515830
  H      5.13117474     -0.80277205     -2.61821284
  H      3.37613396      3.10019505      5.08047550
  H      2.48588666      3.10662395      2.78853236
  P      1.99669187     -1.19192541      4.12368856
  C      0.71623818     -1.63342614      5.34348938
  C      1.00890160     -2.10293575      6.62660687
  C     -0.01039445     -2.49754126      7.47914583
  C     -1.33298584     -2.45052781      7.05849333
  C     -1.63441215     -2.00273297      5.77955116
  C     -0.61703822     -1.59301916      4.93070451
  H     -2.12761556     -2.76484335      7.72475418
  H      2.03848601     -2.16248014      6.96037002
  H     -0.85884408     -1.23649033      3.93458401
  H     -2.66322949     -1.97460240      5.43957626
  C      3.43185025     -0.62327037      5.08176542
  C      4.73006581     -0.86399595      4.62012631
  C      5.82650581     -0.40154602      5.33010148
  C      5.64559228      0.32062094      6.50273428
  C      4.36074398      0.60269153      6.94710925
  C      3.26210015      0.14386591      6.23734293
  H      2.26258190      0.37461457      6.58729620
  H      6.50426688      0.66731741      7.06526727
  H      4.21164889      1.18095305      7.85167118
  H      4.88267397     -1.42769297      3.70626189
  H      0.23058754     -2.85200467      8.47449379
  C      2.44812830     -2.86895331      3.56686993
  C      1.81997553     -3.37037257      2.42540566
  C      2.06579832     -4.66251411      1.99005419
  C      2.95012821     -5.47367699      2.68705424
  C      3.57624586     -4.98938684      3.82741267
  C      3.32209925     -3.70064767      4.27096284
  H      3.14769480     -6.48217609      2.34296775
  H      4.26281784     -5.62030400      4.37996826
  H      3.80698151     -3.34025713      5.17093576
  H      6.82675634     -0.60870289      4.96773521
  H      1.56837617     -5.03414540      1.10279076
  H      1.13665682     -2.73561078      1.87123895
  P      0.45610465     -0.28708815     -4.90780339
  C      2.14659001      0.35854240     -5.14427415
  C      3.01874761     -0.05115574     -6.15315123
  C      4.27032342      0.53339404     -6.28220171
  C      4.66398781      1.54286923     -5.41580128
  C      3.81045767      1.94823576     -4.39887798
  C      2.57024577      1.34916289     -4.25067492
  H      5.63645140      2.00794829     -5.52550542
  H      2.72491421     -0.83510191     -6.84060874
  H      1.92071780      1.64937574     -3.43392693
  H      4.11463303      2.73065906     -3.71364976
  C     -0.55570851      1.03890194     -5.67429262
  C     -1.83508960      0.70719844     -6.13443864
  C     -2.64087733      1.66296421     -6.73194940
  C     -2.19371242      2.97120477     -6.86202134
  C     -0.93395805      3.31453303     -6.39449475
  C     -0.12061174      2.35847279     -5.80445334
  H      0.86368460      2.64657497     -5.45463125
  H     -2.82431530      3.71797502     -7.32960145
  H     -0.57521737      4.33261969     -6.49307729
  H     -2.19277453     -0.31254519     -6.03925895
  H      4.93583523      0.20323312     -7.07134489
  C      0.21371413     -1.61217418     -6.13591224
  C     -0.22222343     -2.86357862     -5.69867200
  C     -0.46783666     -3.88720933     -6.60070612
  C     -0.27793225     -3.67339635     -7.95832409
  C      0.13672561     -2.42711612     -8.41023864
  C      0.37026155     -1.39949819     -7.51085940
  H     -0.46404645     -4.47309528     -8.66540803
  H      0.27017809     -2.25127330     -9.47127132
  H      0.65858532     -0.42087802     -7.87742966
  H     -3.62059533      1.38410726     -7.10185077
  H     -0.80831809     -4.85153517     -6.24122233
  H     -0.37492699     -3.03301541     -4.63753577

