246
Energy =   -372.44952654 au
 Au      1.38125589     -0.92878895     -1.67215289
 Au     -0.33062303     -0.30697683     -3.88692570
 Au      0.25590756      1.44032842     -1.57888855
 Au     -0.77425815     -1.38424266      2.87685038
 Au     -2.84064992     -0.49609193      1.49011069
 Au     -0.42519731     -0.29114291      0.51503491
 Au      1.90497951      0.97918240     -3.87989610
 Au      2.13499803      0.66784140      0.43335998
  P      1.93708595     -3.25643447     -1.61624109
  C      0.64336506     -4.13155148     -0.67615589
  C     -0.35651395     -4.87933834     -1.30001043
  C     -1.37974684     -5.44904193     -0.55537865
  C     -1.42537862     -5.27343959      0.82112498
  C     -0.43921724     -4.52469077      1.45148179
  C      0.58140378     -3.95254923      0.70985764
  H     -2.22157135     -5.72305640      1.40301991
  H     -0.33138243     -5.02586411     -2.37408202
  H      1.34792825     -3.37198287      1.21141612
  H     -0.46096561     -4.39402088      2.52751523
  C      3.44678385     -3.60947353     -0.66612647
  C      4.43996753     -2.62854863     -0.63162306
  C      5.59932919     -2.81706875      0.10372570
  C      5.78299648     -3.99559812      0.81544988
  C      4.80443939     -4.98085724      0.78657780
  C      3.64327905     -4.79221130      0.05302399
  H      2.88095047     -5.56284684      0.04520092
  H      6.68781551     -4.14588730      1.39259765
  H      4.94479471     -5.90130985      1.34137144
  H      4.29415862     -1.70757845     -1.18629588
  H     -2.14484742     -6.03262029     -1.05423055
  C      2.07996678     -4.20322239     -3.16421159
  C      1.25276691     -3.84101665     -4.23106868
  C      1.31795394     -4.51705533     -5.43808766
  C      2.21750096     -5.56251106     -5.59833390
  C      3.05006447     -5.92563710     -4.54863251
  C      2.98502627     -5.25226722     -3.33837064
  H      2.27326669     -6.08958930     -6.54347521
  H      3.75723918     -6.73763769     -4.67199444
  H      3.64217049     -5.54186465     -2.52638217
  H      6.35769915     -2.04241091      0.12348343
  H      0.66896381     -4.22439748     -6.25557907
  H      0.55602496     -3.01620337     -4.11245333
  P      3.68503136      2.48858216     -4.42951512
  C      4.80528035      3.22271315     -3.18971858
  C      6.19035668      3.05675687     -3.22680118
  C      6.99660336      3.66770804     -2.27769854
  C      6.43248652      4.44570567     -1.27721045
  C      5.05407073      4.60474505     -1.22187693
  C      4.24511468      3.99162673     -2.16450955
  H      7.06421586      4.92696265     -0.53986863
  H      6.64258238      2.45807452     -4.00893312
  H      3.16826935      4.12319786     -2.12066888
  H      4.60906805      5.21375365     -0.44370836
  C      2.95027122      3.96808174     -5.19441931
  C      1.68289571      3.85146802     -5.77034545
  C      1.06927911      4.94147145     -6.36622605
  C      1.71472563      6.17029893     -6.39416977
  C      2.97372821      6.30215271     -5.82264022
  C      3.58861371      5.21145242     -5.22576062
  H      4.56724681      5.32929061     -4.77499229
  H      1.23678372      7.02482841     -6.85842714
  H      3.48222837      7.25905470     -5.84327385
  H      1.17553216      2.89264774     -5.74828626
  H      8.07170556      3.53870473     -2.32493703
  C      4.80384428      1.82271179     -5.69878990
  C      5.04340659      0.44581556     -5.69681694
  C      5.88651031     -0.12489488     -6.63695826
  C      6.49487161      0.67231833     -7.59707494
  C      6.25789039      2.04037132     -7.61324136
  C      5.41895894      2.61501171     -6.67143975
  H      7.15016935      0.22660398     -8.33614218
  H      6.72771697      2.66441593     -8.36457904
  H      5.23637813      3.68343315     -6.69430034
  H      0.08509633      4.83183746     -6.80706444
  H      6.06444369     -1.19409098     -6.62322682
  H      4.56055546     -0.17817905     -4.95111307
  P      3.80271820      1.68659424      1.80151141
  C      3.43878505      3.44697223      2.08686437
  C      3.82124233      4.13836186      3.23835150
  C      3.49443196      5.47724418      3.39267100
  C      2.78167258      6.14336442      2.40516959
  C      2.39764370      5.46742653      1.25470926
  C      2.72380754      4.12922276      1.09849774
  H      2.52354814      7.18815167      2.53185695
  H      4.37018718      3.62638434      4.02026689
  H      2.42553472      3.60140215      0.19849535
  H      1.83812988      5.98061685      0.48100724
  C      5.46947772      1.66796127      1.07498790
  C      5.67312804      0.94633885     -0.10202089
  C      6.93612119      0.85201927     -0.66537611
  C      8.01238429      1.48655534     -0.06012152
  C      7.81745073      2.22987672      1.09726329
  C      6.55571187      2.32327275      1.66287955
  H      6.41058036      2.90501482      2.56632288
  H      9.00219858      1.40845017     -0.49407668
  H      8.65397332      2.73671812      1.56396768
  H      4.82921306      0.45693598     -0.57659155
  H      3.79684939      6.00201342      4.29144569
  C      4.02488516      1.01423599      3.47689261
  C      2.96914767      1.14676627      4.38577353
  C      3.06511109      0.61379139      5.66037885
  C      4.20667979     -0.07869681      6.04252887
  C      5.25011777     -0.23632541      5.14187125
  C      5.16059014      0.30158733      3.86621352
  H      4.27926712     -0.49779061      7.03919084
  H      6.14083275     -0.78180648      5.43135740
  H      5.98306147      0.17113118      3.17248188
  H      7.07839901      0.28638149     -1.57900956
  H      2.24585844      0.73962954      6.35832826
  H      2.07147719      1.68117500      4.09080164
  P     -5.04127858     -0.50234935      2.38100116
  C     -5.12760940      0.61095166      3.81977430
  C     -6.09828380      1.59568330      4.00337322
  C     -6.06649112      2.40821526      5.12855305
  C     -5.07184037      2.24678161      6.08234492
  C     -4.10040487      1.26799535      5.90949919
  C     -4.12586956      0.46108403      4.78463584
  H     -5.05178494      2.88166243      6.96019391
  H     -6.88394732      1.72692406      3.26838433
  H     -3.36176895     -0.29879093      4.64860959
  H     -3.32075787      1.13359874      6.65111641
  C     -5.43385929     -2.09670992      3.16676437
  C     -4.54603969     -3.16473006      3.02769127
  C     -4.79373585     -4.37944633      3.64791168
  C     -5.93382001     -4.54154024      4.42247585
  C     -6.81852060     -3.48239881      4.58127410
  C     -6.57126078     -2.26712970      3.96306702
  H     -7.25791473     -1.44000743      4.10545161
  H     -6.13022920     -5.49058016      4.90731680
  H     -7.70434448     -3.60270714      5.19397157
  H     -3.64701655     -3.03788829      2.43476494
  H     -6.82709879      3.16895741      5.26036807
  C     -6.46150725     -0.06716102      1.33459638
  C     -6.40999425      1.16257371      0.66834675
  C     -7.41929533      1.53657438     -0.20373419
  C     -8.48566521      0.67851837     -0.44092903
  C     -8.53702565     -0.55194507      0.19886211
  C     -7.53261938     -0.92543069      1.08040956
  H     -9.27303587      0.96796546     -1.12679485
  H     -9.36483013     -1.22663514      0.01397135
  H     -7.58508981     -1.88953498      1.57279947
  H     -4.09194261     -5.19743671      3.52984514
  H     -7.37037709      2.49748727     -0.70316477
  H     -5.56784027      1.82668274      0.83513508
  P     -1.19010039      3.26660414     -1.08981859
  C     -2.82755670      3.18316270     -1.87429170
  C     -3.39366847      4.22963242     -2.60239375
  C     -4.64711623      4.08254583     -3.17963286
  C     -5.34825202      2.89339960     -3.03733054
  C     -4.78712366      1.84030958     -2.32519499
  C     -3.53275425      1.97972298     -1.75703717
  H     -6.32787720      2.78179762     -3.48688473
  H     -2.85494616      5.16387121     -2.71215971
  H     -3.09350640      1.15178735     -1.20790505
  H     -5.32718909      0.90715736     -2.21379943
  C     -0.54395317      4.93797531     -1.38339949
  C      0.40234282      5.10656302     -2.39815692
  C      0.97293690      6.34782087     -2.62980034
  C      0.60998988      7.43504825     -1.84603434
  C     -0.32943256      7.27861525     -0.83488451
  C     -0.90445578      6.03857919     -0.60163828
  H     -1.63176180      5.92033456      0.19364111
  H      1.06132526      8.40441836     -2.02164945
  H     -0.61464180      8.12607958     -0.22248782
  H      0.69114697      4.25549453     -3.00700997
  H     -5.07940470      4.90402629     -3.73897319
  C     -1.60100722      3.24174413      0.68956266
  C     -2.90289591      3.34398188      1.18372858
  C     -3.15085517      3.23922799      2.54481686
  C     -2.10655118      3.03332078      3.43522070
  C     -0.80567528      2.94269469      2.95851427
  C     -0.55930309      3.04294174      1.59954461
  H     -2.30660718      2.94359355      4.49661055
  H      0.02010066      2.78973831      3.64447269
  H      0.45848691      2.96610645      1.23605019
  H      1.70638356      6.46594871     -3.41925867
  H     -4.16823579      3.31938422      2.91022263
  H     -3.73045223      3.50573189      0.50331377
  P     -2.46222008     -1.31167810     -4.26535790
  C     -3.55875912     -0.25547748     -5.25445285
  C     -4.62785778     -0.75088914     -6.00766530
  C     -5.43273103      0.11426589     -6.73240725
  C     -5.18145710      1.48002016     -6.72017806
  C     -4.11680605      1.98155942     -5.98384481
  C     -3.31164252      1.11924327     -5.25707214
  H     -5.81128784      2.15271748     -7.29034873
  H     -4.82096064     -1.81738782     -6.03443253
  H     -2.47848142      1.51086193     -4.68222598
  H     -3.91136590      3.04593250     -5.97566512
  C     -3.44335398     -1.76183968     -2.79521993
  C     -2.76303679     -2.29267333     -1.69744220
  C     -3.45947475     -2.73408739     -0.58192541
  C     -4.84397114     -2.62631275     -0.53791584
  C     -5.52669328     -2.06900670     -1.60943838
  C     -4.83373153     -1.64685165     -2.73406014
  H     -5.38039478     -1.23991520     -3.57684984
  H     -5.38716794     -2.98453216      0.32859217
  H     -6.60617810     -1.97599991     -1.57587486
  H     -1.68159226     -2.37765436     -1.72469412
  H     -6.25864288     -0.28049743     -7.31261454
  C     -2.38448651     -2.87609721     -5.19189465
  C     -2.04875844     -2.82489710     -6.54907554
  C     -1.89452001     -3.99170018     -7.28044460
  C     -2.05767832     -5.22684098     -6.66501831
  C     -2.37307805     -5.28856457     -5.31487783
  C     -2.53325067     -4.12293733     -4.58085981
  H     -1.93744912     -6.13884881     -7.23756481
  H     -2.49824504     -6.24904825     -4.82825615
  H     -2.78370628     -4.18541495     -3.52788012
  H     -2.92258141     -3.19538047      0.23749927
  H     -1.64690995     -3.93699127     -8.33414917
  H     -1.91537168     -1.86322414     -7.03303390
  P      0.00907875     -2.28468912      4.88521521
  C     -0.86724451     -3.76484058      5.45968102
  C     -0.39930712     -5.05380821      5.19168164
  C     -1.16294236     -6.16120532      5.52902114
  C     -2.40490626     -5.99801331      6.12685600
  C     -2.88497143     -4.72044314      6.38635626
  C     -2.12687636     -3.61138779      6.04853081
  H     -2.99948592     -6.86491000      6.38975034
  H      0.57066456     -5.19196420      4.72728013
  H     -2.51069806     -2.61561663      6.24448789
  H     -3.85599580     -4.58698172      6.84919255
  C     -0.14101383     -1.10670837      6.26144304
  C     -0.38917164      0.23294821      5.95428756
  C     -0.51592468      1.17930599      6.95985297
  C     -0.39953955      0.79525485      8.28925346
  C     -0.15704353     -0.53476900      8.60688215
  C     -0.02827630     -1.48152559      7.60278585
  H      0.15343190     -2.51860712      7.86089225
  H     -0.50103483      1.53197956      9.07735397
  H     -0.06966598     -0.83730526      9.64387606
  H     -0.48638697      0.53028512      4.91517352
  H     -0.78496578     -7.15583101      5.32260651
  C      1.76697913     -2.74513187      4.81078641
  C      2.49655442     -2.36592706      3.68198570
  C      3.83081273     -2.71362813      3.54890409
  C      4.45817627     -3.44467988      4.54832743
  C      3.74887958     -3.81403495      5.68377932
  C      2.41309621     -3.46813659      5.81724426
  H      5.50028423     -3.72321879      4.44377894
  H      4.23774757     -4.37872506      6.46904858
  H      1.86740723     -3.76517263      6.70554037
  H     -0.70465104      2.21581588      6.70446173
  H      4.38095664     -2.41266396      2.66440412
  H      2.00985584     -1.78940633      2.90210851
