246
Energy =   -372.46344631 au
 Au      0.12074480      0.09454446     -0.44872418
 Au      1.01674726      0.64497040      2.13941972
 Au     -1.07668851      1.39745268     -2.37827594
 Au     -1.43331492     -0.68708707      1.80022084
 Au      1.54158395      0.91770796     -2.49335179
 Au     -1.63449987     -3.26493162      0.28328057
 Au     -1.26327580     -3.43462422      2.80738152
 Au      0.80934264     -1.98021414      1.36770591
  P      3.35028358      1.47664222     -3.90409498
  C      2.77382847      2.08072484     -5.51585939
  C      3.60113270      2.77409996     -6.40576138
  C      3.11266266      3.19523970     -7.63279463
  C      1.79782005      2.92957250     -7.99186994
  C      0.96577561      2.24747839     -7.11471874
  C      1.45015936      1.83230001     -5.88496345
  H      1.42025812      3.25865962     -8.95274059
  H      4.62732908      2.99065828     -6.13136027
  H      0.79441554      1.31151265     -5.19529184
  H     -0.06477796      2.04535450     -7.38396578
  C      4.47267132      0.09119485     -4.27074709
  C      4.84610457     -0.73336625     -3.20436025
  C      5.71426493     -1.79543795     -3.40199847
  C      6.19819470     -2.06865941     -4.67431264
  C      5.81232141     -1.27335830     -5.74427260
  C      4.95898748     -0.19779712     -5.54663001
  H      4.67134738      0.41831882     -6.39054816
  H      6.87180195     -2.90270681     -4.83165199
  H      6.18101094     -1.48727286     -6.74070038
  H      4.45122422     -0.53662025     -2.21348796
  H      3.76308786      3.73283852     -8.31281811
  C      4.45069445      2.79028024     -3.29045377
  C      4.09856420      4.13040416     -3.48094250
  C      4.85392265      5.14583478     -2.91521985
  C      5.96515636      4.83991282     -2.14145128
  C      6.32483585      3.51343935     -1.94649418
  C      5.57397691      2.49580051     -2.51437416
  H      6.55268240      5.63392694     -1.69600045
  H      7.19643378      3.26733447     -1.35073947
  H      5.87296490      1.46474645     -2.36385022
  H      6.01197778     -2.41036073     -2.56003076
  H      4.57115175      6.17929732     -3.07891990
  H      3.23634666      4.37858938     -4.09027867
  P     -2.55418453      2.72539793     -3.65767479
  C     -3.67235610      3.86470617     -2.78236845
  C     -3.77188918      5.22011897     -3.10411596
  C     -4.62667873      6.04974529     -2.39444411
  C     -5.39689339      5.53933196     -1.35900299
  C     -5.30313106      4.19425711     -1.02795016
  C     -4.44020863      3.36513213     -1.72585887
  H     -6.06692408      6.18839554     -0.80770997
  H     -3.17885879      5.62867807     -3.91399399
  H     -4.35320234      2.32079407     -1.44483364
  H     -5.89758480      3.79239454     -0.21546743
  C     -3.61660539      1.82224847     -4.82199990
  C     -3.01809393      0.80238393     -5.56845635
  C     -3.76382435      0.04845904     -6.45878728
  C     -5.12173352      0.29989462     -6.61146872
  C     -5.72612528      1.30898803     -5.87461613
  C     -4.98115501      2.06694734     -4.98256299
  H     -5.46160122      2.85227583     -4.41062774
  H     -5.70777420     -0.29126143     -7.30515718
  H     -6.78421726      1.51045117     -5.99507620
  H     -1.95725774      0.60938069     -5.44614811
  H     -4.69264401      7.09969904     -2.65484622
  C     -1.56291816      3.81447195     -4.72449976
  C     -0.39914244      4.36673396     -4.18298289
  C      0.40293696      5.20675266     -4.93754092
  C      0.06026743      5.49697146     -6.25165330
  C     -1.08888700      4.94745690     -6.80341394
  C     -1.89845511      4.11285089     -6.04685735
  H      0.69071748      6.14805913     -6.84568195
  H     -1.35888285      5.17039239     -7.82910862
  H     -2.79478362      3.68996228     -6.48554627
  H     -3.28660037     -0.73708647     -7.03340990
  H      1.29844682      5.63429006     -4.50095050
  H     -0.12818594      4.13168856     -3.15886717
  P      2.80704574     -3.24569483      0.97791417
  C      4.27155092     -2.20397886      0.67159791
  C      5.57448621     -2.71218582      0.71765875
  C      6.66303624     -1.87785610      0.51438192
  C      6.47396172     -0.52291353      0.27470540
  C      5.18683123     -0.00484375      0.22874659
  C      4.09798941     -0.84266360      0.41908905
  H      7.32736404      0.12856215      0.12775709
  H      5.73514917     -3.76394715      0.92550186
  H      3.09662714     -0.43001829      0.37913718
  H      5.02656531      1.05308587      0.05315907
  C      2.69636162     -4.36671079     -0.45403637
  C      1.54658655     -5.15556914     -0.57726981
  C      1.37315131     -5.99247773     -1.66776515
  C      2.33617417     -6.03886657     -2.66694799
  C      3.47391551     -5.25102744     -2.56402537
  C      3.65601993     -4.42317708     -1.46573493
  H      4.55088966     -3.81587187     -1.39833013
  H      2.19624368     -6.68370267     -3.52643382
  H      4.22711581     -5.27804611     -3.34308265
  H      0.77428256     -5.10040948      0.18297933
  H      7.66598455     -2.28663640      0.55255146
  C      3.33438370     -4.30102405      2.36489591
  C      4.04869014     -3.72313864      3.42093316
  C      4.36381072     -4.46474508      4.54854745
  C      3.96205475     -5.79001388      4.64473612
  C      3.24442853     -6.37009306      3.60822447
  C      2.92826063     -5.63218627      2.47796111
  H      4.20555798     -6.36883819      5.52768882
  H      2.92624054     -7.40376666      3.67936728
  H      2.36989308     -6.09999067      1.67527972
  H      0.47831301     -6.59984749     -1.74156617
  H      4.92337351     -4.00435750      5.35455844
  H      4.37194463     -2.69002391      3.35063645
  P     -1.98306078     -3.24516726     -2.09215950
  C     -3.50413959     -2.45101277     -2.70676365
  C     -3.77042780     -1.14535906     -2.28362436
  C     -4.92243513     -0.49415120     -2.68982700
  C     -5.83368056     -1.13997135     -3.51522282
  C     -5.58518482     -2.43907771     -3.93321201
  C     -4.43002688     -3.09293848     -3.53056731
  H     -6.73664268     -0.62928261     -3.82837953
  H     -3.06944648     -0.64140126     -1.62445973
  H     -4.24734071     -4.10954325     -3.85855839
  H     -6.29443893     -2.94887669     -4.57473394
  C     -2.03770805     -4.94058212     -2.74870232
  C     -2.33843620     -5.97572331     -1.85981194
  C     -2.36712076     -7.29316649     -2.28959387
  C     -2.09021825     -7.59569936     -3.61585302
  C     -1.78706122     -6.57652987     -4.50895563
  C     -1.75913828     -5.25852035     -4.08152771
  H     -1.51244556     -4.47232069     -4.78625170
  H     -2.10722915     -8.62538469     -3.95284720
  H     -1.56802661     -6.80878495     -5.54474407
  H     -2.54863934     -5.74060053     -0.82188006
  H     -5.11899488      0.51715445     -2.35381508
  C     -0.68928470     -2.49263986     -3.13628299
  C      0.63006054     -2.55514929     -2.68832947
  C      1.67288793     -2.10596522     -3.48403930
  C      1.40643288     -1.57543429     -4.74082764
  C      0.09445390     -1.48028394     -5.18538965
  C     -0.94760478     -1.93508285     -4.39040860
  H      2.22107926     -1.24074928     -5.37224808
  H     -0.11709457     -1.06633135     -6.16454722
  H     -1.96792380     -1.86630234     -4.74953581
  H     -2.60258470     -8.08414504     -1.58717968
  H      2.69422813     -2.19052485     -3.13172785
  H      0.83891701     -2.97321833     -1.71085418
  P      1.82983531      2.79790554      2.74710947
  C      1.50780916      3.96000458      1.38091611
  C      0.84590239      5.17887415      1.52669083
  C      0.62156629      5.99211130      0.42433209
  C      1.05234772      5.59914572     -0.83499906
  C      1.71520382      4.38783700     -0.98863787
  C      1.94081721      3.57580267      0.10884438
  H      0.87689624      6.23590078     -1.69418266
  H      0.50150038      5.49530552      2.50428759
  H      2.46174626      2.63190944     -0.01784820
  H      2.06458784      4.07543366     -1.96558254
  C      3.61424665      3.00851706      3.01486797
  C      4.43317867      1.87833483      2.99474488
  C      5.80588396      1.99841509      3.14706170
  C      6.37614343      3.25192048      3.31959446
  C      5.57154175      4.38439135      3.33353639
  C      4.19961027      4.26810343      3.17765683
  H      3.57785390      5.15656670      3.17324128
  H      7.44890617      3.34804855      3.43896421
  H      6.01612297      5.36438804      3.46226443
  H      3.98800813      0.89954187      2.85003552
  H      0.10856659      6.93828660      0.55233133
  C      0.96499944      3.51624271      4.17058692
  C     -0.43399387      3.49533310      4.12277094
  C     -1.18418951      3.93954596      5.19824735
  C     -0.54725645      4.39341276      6.34689344
  C      0.83913123      4.40676187      6.40943699
  C      1.59443853      3.97085673      5.32972438
  H     -1.13254176      4.73366314      7.19292473
  H      1.33866075      4.75789819      7.30484152
  H      2.67663910      3.98585071      5.38959858
  H      6.42930411      1.11172221      3.12705746
  H     -2.26691323      3.92482544      5.14163839
  H     -0.93004753      3.12478281      3.23142869
  P     -0.74967024     -3.31044942      5.14130391
  C      0.27442914     -1.83131903      5.43082922
  C     -0.17390796     -0.70886173      6.12583146
  C      0.61961763      0.42598597      6.22040601
  C      1.87157463      0.45433379      5.62349832
  C      2.32960472     -0.65825385      4.92629314
  C      1.53452809     -1.78858227      4.82818160
  H      2.49489117      1.33715918      5.70454616
  H     -1.14717452     -0.72535063      6.60200648
  H      1.89705534     -2.65578154      4.28701326
  H      3.31306476     -0.65045439      4.47098676
  C      0.23152522     -4.64851055      5.88815489
  C      0.01240839     -5.94994573      5.42870579
  C      0.70639084     -7.01703262      5.97641806
  C      1.63398696     -6.79681355      6.98623572
  C      1.86969205     -5.50585908      7.44033287
  C      1.17524652     -4.43612185      6.89647467
  H      1.37031080     -3.43132943      7.25354756
  H      2.17486867     -7.63084855      7.41758902
  H      2.59672201     -5.32981681      8.22467678
  H     -0.70888800     -6.12228936      4.63661897
  H      0.25890647      1.29066473      6.76610214
  C     -2.16868347     -3.09717825      6.25789233
  C     -3.42301582     -2.85878523      5.69209999
  C     -4.54034668     -2.69897013      6.49624054
  C     -4.41722725     -2.77018696      7.87694826
  C     -3.17455418     -3.00601791      8.45078239
  C     -2.05667417     -3.17312511      7.64931361
  H     -5.29078080     -2.64733457      8.50636622
  H     -3.07660655     -3.06592419      9.52848212
  H     -1.09163454     -3.36876635      8.10339364
  H      0.52329177     -8.02215835      5.61466828
  H     -5.50873924     -2.52011578      6.04334935
  H     -3.51896464     -2.80162894      4.61244173
  P     -3.44533164      0.52370571      2.22606516
  C     -4.91211899      0.01700732      1.27521836
  C     -5.92674295      0.90770250      0.91579515
  C     -7.01871968      0.46841340      0.18325797
  C     -7.11753770     -0.86453113     -0.19346612
  C     -6.11687229     -1.75925325      0.16057045
  C     -5.02015242     -1.31930728      0.88390490
  H     -7.97212824     -1.20495239     -0.76612013
  H     -5.86138661      1.94799296      1.21375138
  H     -4.23414816     -2.01870819      1.14927705
  H     -6.18561329     -2.79983772     -0.13453579
  C     -3.25628487      2.29944286      1.84689119
  C     -2.41378342      2.66511481      0.79617847
  C     -2.19917329      3.99547081      0.47828245
  C     -2.82550091      4.99115323      1.21556826
  C     -3.66910059      4.64484713      2.26219502
  C     -3.88503974      3.31118821      2.57786944
  H     -4.54077542      3.05514701      3.40190854
  H     -2.65629450      6.03383341      0.97377557
  H     -4.16214461      5.41796239      2.83993870
  H     -1.91694316      1.89260542      0.22099226
  H     -7.79743161      1.17038443     -0.09158633
  C     -3.99382206      0.55788559      3.96022152
  C     -5.30039984      0.28448627      4.36694966
  C     -5.64376308      0.35205073      5.70968502
  C     -4.69137727      0.69421840      6.65934261
  C     -3.38573398      0.95905625      6.26573436
  C     -3.03623657      0.88059841      4.92766482
  H     -4.96412324      0.75154542      7.70642456
  H     -2.63982957      1.23119156      7.00371593
  H     -2.01310423      1.07770917      4.62299904
  H     -1.54099934      4.25279478     -0.34385738
  H     -6.66300637      0.14310356      6.01305217
  H     -6.05288090      0.02327305      3.63195462
