#B3LYP/6-31+G(d) OPT FREQ

246, Energy =   -372.44573679 au

0 1
 Au      1.81291512      1.49245674     -2.10577287
 Au      1.06979199      0.42168705      2.65841067
 Au      2.09383430      2.09255407      0.91096806
 Au     -0.35967672     -0.74531846     -2.30673822
 Au     -0.13611212      2.87378199     -0.78079376
 Au      0.49532539     -0.03872506      0.10336392
 Au     -0.98697006     -2.30761059     -0.16591615
 Au     -0.52251129      2.06880191     -3.30754521
  P      3.14203765      4.19488958      0.32177798
  C      2.58533866      4.77254996     -1.31214864
  C      1.43791357      5.56083112     -1.43482143
  C      0.92112642      5.87653719     -2.68301086
  C      1.53750523      5.40363806     -3.83319536
  C      2.67362958      4.61327050     -3.72684037
  C      3.18759148      4.29123654     -2.47852532
  H      1.13528887      5.65069546     -4.80834615
  H      0.95369229      5.94595970     -0.54590172
  H      4.07572982      3.67518774     -2.40907127
  H      3.16277643      4.24138349     -4.61964185
  C      4.96106067      4.29571510      0.28052510
  C      5.65965189      3.58379986      1.26106176
  C      7.04479624      3.59981283      1.29434996
  C      7.75246429      4.32857417      0.34764877
  C      7.06868414      5.05571579     -0.61688502
  C      5.68229291      5.04604744     -0.65059768
  H      5.16306921      5.62957835     -1.40174791
  H      8.83583739      4.33649493      0.36716858
  H      7.61668380      5.63791876     -1.34866695
  H      5.10731372      3.02429311      2.00916343
  H      0.03388414      6.49533362     -2.75374423
  C      2.67816121      5.55910863      1.43325918
  C      2.07553414      5.26556495      2.65641580
  C      1.70901175      6.28203244      3.52503482
  C      1.94053793      7.60590617      3.18016845
  C      2.55066052      7.90987591      1.96950750
  C      2.92299061      6.89600134      1.10224201
  H      1.65035733      8.40155806      3.85611799
  H      2.73948947      8.94262431      1.70063448
  H      3.40385236      7.13952548      0.16133183
  H      7.57185631      3.04133869      2.05919184
  H      1.23869847      6.03785473      4.47079386
  H      1.89000853      4.23100408      2.92436958
  P     -1.72342831      4.08098286      0.56325670
  C     -3.36193863      3.29274985      0.43433138
  C     -4.41935453      3.59017329      1.29806695
  C     -5.64530238      2.96011214      1.15238537
  C     -5.83983524      2.03141904      0.13910172
  C     -4.79882941      1.73055312     -0.72747225
  C     -3.56938070      2.34898438     -0.57326854
  H     -6.79906332      1.54006784      0.02621773
  H     -4.28354292      4.31246449      2.09448952
  H     -2.75485279      2.09532307     -1.24240493
  H     -4.94100157      1.00802955     -1.52210739
  C     -1.97103582      5.72898148     -0.16000739
  C     -1.23081619      6.82692384      0.29198794
  C     -1.32714002      8.05103513     -0.35218307
  C     -2.15034047      8.19362609     -1.46123392
  C     -2.88034095      7.10676141     -1.92435759
  C     -2.78789307      5.88131055     -1.28335480
  H     -3.35659532      5.03504437     -1.65358589
  H     -2.22272406      9.15052798     -1.96428321
  H     -3.52400046      7.21258417     -2.78994168
  H     -0.58432294      6.72576190      1.15715407
  H     -6.45292243      3.19662435      1.83526563
  C     -1.52985279      4.40528352      2.34873763
  C     -0.74867226      3.53553574      3.11062980
  C     -0.59383354      3.72202590      4.47548061
  C     -1.22901193      4.78320684      5.10565036
  C     -2.01352143      5.65462495      4.36181460
  C     -2.16328162      5.47169928      2.99548754
  H     -1.11150641      4.93101388      6.17260316
  H     -2.51185209      6.48553283      4.84735451
  H     -2.77131980      6.16688935      2.42853053
  H     -0.75371882      8.89508230      0.01333273
  H      0.02940877      3.04041701      5.04279229
  H     -0.24759652      2.70569203      2.62529245
  P      0.67509617     -0.29559873      4.89359629
  C     -1.01563024     -0.40668067      5.56078175
  C     -1.80275848     -1.51619800      5.23719720
  C     -3.09988832     -1.62460358      5.71024299
  C     -3.64066837     -0.61639612      6.49740204
  C     -2.88192905      0.50703552      6.79506059
  C     -1.58099455      0.61495813      6.32734189
  H     -4.65337776     -0.70413959      6.87261294
  H     -1.38829208     -2.30433393      4.61877529
  H     -0.99728241      1.49459034      6.57317883
  H     -3.30163202      1.30266520      7.39967337
  C      1.56121850      0.76469545      6.07778462
  C      2.40486688      1.75474680      5.56788258
  C      3.10356310      2.60060176      6.41469367
  C      2.97002755      2.46742719      7.78962038
  C      2.13723778      1.48594275      8.31102102
  C      1.43661500      0.64114039      7.46507601
  H      0.78515945     -0.11578532      7.88623915
  H      3.51345933      3.12796955      8.45481878
  H      2.03024595      1.37846599      9.38415491
  H      2.51146911      1.85974946      4.49281335
  H     -3.69172447     -2.49873814      5.46399170
  C      1.34594079     -1.96582887      5.17257436
  C      2.07084152     -2.56344377      4.13995340
  C      2.63230947     -3.82084844      4.30003263
  C      2.47298354     -4.50297326      5.49784534
  C      1.74226793     -3.92581738      6.52896238
  C      1.17938158     -2.66901972      6.36925165
  H      2.91207152     -5.48518212      5.62667464
  H      1.60927901     -4.45796780      7.46373778
  H      0.60303849     -2.23489823      7.17799999
  H      3.75069096      3.36472742      5.99934213
  H      3.19228784     -4.26905962      3.48703908
  H      2.18978564     -2.03315782      3.20094647
  P     -0.32621587     -4.68055096      0.10944762
  C      1.42341368     -5.12282938     -0.16274923
  C      2.25517721     -5.62764904      0.83775832
  C      3.59529992     -5.87997731      0.57809951
  C      4.12273066     -5.63141708     -0.68157292
  C      3.30565492     -5.12201752     -1.68322994
  C      1.96969629     -4.86210059     -1.42350786
  H      5.16781190     -5.83355060     -0.88411279
  H      1.85257509     -5.83395732      1.82275374
  H      1.33470830     -4.45933265     -2.20666083
  H      3.71044467     -4.92813692     -2.67001660
  C     -1.20708000     -5.78130894     -1.04487409
  C     -2.45954412     -5.37386734     -1.50712181
  C     -3.21197477     -6.18941073     -2.33682912
  C     -2.71197078     -7.42383053     -2.73141652
  C     -1.45675350     -7.83110902     -2.29838812
  C     -0.70828429     -7.01964494     -1.45948188
  H      0.27011691     -7.34686274     -1.12662708
  H     -3.29786593     -8.06511024     -3.37925631
  H     -1.05972834     -8.78973192     -2.61156038
  H     -2.84486249     -4.40527424     -1.20903007
  H      4.22688373     -6.28083028      1.36249921
  C     -0.68840691     -5.41083869      1.74274262
  C     -0.48170538     -4.61208311      2.87128752
  C     -0.72957128     -5.10786234      4.14199422
  C     -1.20131650     -6.40370084      4.30379681
  C     -1.42425537     -7.20050683      3.18911287
  C     -1.16985436     -6.70969225      1.91767808
  H     -1.39701164     -6.78962638      5.29724772
  H     -1.79803671     -8.21068282      3.30922962
  H     -1.34819814     -7.34247959      1.05608482
  H     -4.18576529     -5.85863125     -2.67959745
  H     -0.55578866     -4.48325726      5.01049249
  H     -0.12019680     -3.59597356      2.74715756
  P      3.85859690      0.25216417     -2.26874389
  C      5.34944715      1.19151985     -2.72073924
  C      6.55821467      1.14111204     -2.02302623
  C      7.63134949      1.92338977     -2.42325527
  C      7.52086044      2.75405145     -3.52915138
  C      6.33320847      2.79244926     -4.24795787
  C      5.25567714      2.02057912     -3.84478147
  H      8.36098872      3.36593010     -3.83538394
  H      6.66845678      0.48471695     -1.16820832
  H      4.32938879      2.04828196     -4.40976247
  H      6.24383226      3.42787146     -5.12129326
  C      3.90292202     -1.18152163     -3.39235506
  C      2.74897799     -1.94523921     -3.57248228
  C      2.74579499     -3.03955855     -4.42161695
  C      3.90062568     -3.38695925     -5.10996082
  C      5.05457472     -2.63400010     -4.94197700
  C      5.05904310     -1.53980250     -4.09108367
  H      5.96644020     -0.95999111     -3.96973608
  H      3.89746350     -4.23782120     -5.78070229
  H      5.95842823     -2.89820208     -5.47830098
  H      1.83992631     -1.67279243     -3.04637675
  H      8.56009076      1.87976196     -1.86626421
  C      4.20120347     -0.45695342     -0.62971615
  C      4.66385368      0.38537479      0.38742318
  C      4.85883251     -0.09572970      1.67304384
  C      4.57637975     -1.42261642      1.96843135
  C      4.08756652     -2.25892819      0.97424620
  C      3.89740386     -1.78186681     -0.31430422
  H      4.74146513     -1.80271227      2.96947298
  H      3.85926351     -3.29451264      1.19892860
  H      3.51966350     -2.45053875     -1.07953265
  H      1.83641885     -3.61390144     -4.55631939
  H      5.23575709      0.56705356      2.44322783
  H      4.89612893      1.41917444      0.16188070
  P     -0.87229724     -0.84981438     -4.66908946
  C     -1.79854002     -2.32868063     -5.18370998
  C     -2.86700674     -2.29011682     -6.08255228
  C     -3.52164635     -3.45960384     -6.44008282
  C     -3.10981214     -4.67831622     -5.91887835
  C     -2.04705435     -4.72656048     -5.02644125
  C     -1.40632037     -3.55850946     -4.64718384
  H     -3.61696821     -5.59149907     -6.20716446
  H     -3.18209163     -1.34444867     -6.50857709
  H     -0.59050460     -3.59531650     -3.93191651
  H     -1.72018656     -5.67632642     -4.62026714
  C      0.52447422     -0.78701550     -5.83848065
  C      1.40223780      0.29831938     -5.77228593
  C      2.52506013      0.35963879     -6.57865776
  C      2.79563004     -0.67257579     -7.46789346
  C      1.93188945     -1.75529686     -7.54795766
  C      0.80638896     -1.81664835     -6.73942202
  H      0.14290182     -2.67027696     -6.81133372
  H      3.67753285     -0.63110315     -8.09595037
  H      2.13509229     -2.56198033     -8.24262330
  H      1.19777047      1.10724897     -5.07755243
  H     -4.35215988     -3.41760033     -7.13506474
  C     -1.92875068      0.54358818     -5.18857740
  C     -2.85815141      1.04143046     -4.25896481
  C     -3.69754623      2.09723230     -4.59213967
  C     -3.61665975      2.67482654     -5.85090737
  C     -2.70187687      2.19095963     -6.77740052
  C     -1.86382618      1.13503726     -6.45270595
  H     -4.26878833      3.49982625     -6.11212673
  H     -2.64115322      2.63828032     -7.76270904
  H     -1.15326888      0.76658987     -7.18336105
  H      3.19171998      1.21191725     -6.51080551
  H     -4.41485090      2.46106087     -3.86549923
  H     -2.96213933      0.55012437     -3.29856233
  P     -3.41065315     -2.21004270      0.63306919
  C     -4.14299563     -3.72605839      1.33896202
  C     -3.76859271     -4.10209074      2.63308186
  C     -4.22813269     -5.28506957      3.18724035
  C     -5.05064195     -6.12603519      2.44898053
  C     -5.41811126     -5.77108093      1.15896444
  C     -4.97060484     -4.58012230      0.60664676
  H     -5.40362821     -7.05562971      2.87950138
  H     -3.11219663     -3.45708155      3.20748188
  H     -5.27572320     -4.30953716     -0.39770601
  H     -6.06020441     -6.42261693      0.57751363
  C     -4.55269818     -1.82711171     -0.74531384
  C     -4.06039236     -1.88226260     -2.05052350
  C     -4.88386113     -1.62084199     -3.13510008
  C     -6.21697850     -1.29433168     -2.93159385
  C     -6.72170824     -1.23656650     -1.63895671
  C     -5.89884701     -1.50200338     -0.55524592
  H     -6.30846024     -1.45278500      0.44671127
  H     -6.86173258     -1.08795055     -3.77767480
  H     -7.76314399     -0.98646633     -1.47287302
  H     -3.01916620     -2.13621568     -2.21841361
  H     -3.93622045     -5.55528814      4.19561708
  C     -3.84969826     -0.96207570      1.90039352
  C     -2.98492699      0.11496062      2.09923638
  C     -3.26638152      1.08605432      3.04651744
  C     -4.42976825      1.00915765      3.79826133
  C     -5.29596762     -0.06030278      3.61679143
  C     -5.00265756     -1.04554213      2.68696666
  H     -4.65293444      1.77420267      4.53257980
  H     -6.20009954     -0.13411465      4.20982177
  H     -5.67052518     -1.89237884      2.58069830
  H     -4.48373599     -1.67640373     -4.14115395
  H     -2.57544394      1.90649758      3.19911385
  H     -2.07823982      0.19094963      1.50722010

