#B3LYP/6-31+G(d) OPT FREQ

246, Energy =   -372.42576905 au

0 1
 Au     -0.83983082     -0.12116462      1.01900651
 Au     -1.57720540     -2.13832773     -0.57259120
 Au      1.43290517      3.23916997     -0.56936189
 Au     -2.49670635      0.33571051     -1.03261151
 Au      1.35814595     -2.02929721      0.65721080
 Au      1.79042066      0.43665343      0.03574359
 Au      3.89635562      2.27652030     -0.20221372
 Au      2.54162425      1.65797899     -2.40051501
  P     -2.69336959     -4.27548081     -0.63115564
  C     -1.95729390     -5.92122512     -0.90741524
  C     -1.65341165     -6.78481509      0.14721070
  C     -1.07880710     -8.02359854     -0.09786142
  C     -0.79042088     -8.41530024     -1.39825528
  C     -1.06759074     -7.55599857     -2.45418758
  C     -1.64007843     -6.31722193     -2.21182647
  H     -0.35350226     -9.38826700     -1.58913814
  H     -1.88102666     -6.49362730      1.16584272
  H     -1.86717708     -5.65905842     -3.04379226
  H     -0.84355203     -7.85452735     -3.47172911
  C     -4.11437724     -4.26769305     -1.77596809
  C     -4.64769848     -3.03660498     -2.16048534
  C     -5.79378141     -2.96785147     -2.93563576
  C     -6.41498540     -4.13370881     -3.36056525
  C     -5.88356485     -5.36556410     -3.00433366
  C     -4.74737270     -5.43505796     -2.21325065
  H     -4.35003602     -6.40502430     -1.93779548
  H     -7.30976638     -4.08164089     -3.96958556
  H     -6.36038142     -6.28025944     -3.33705667
  H     -4.15566383     -2.12231401     -1.84672745
  H     -0.86021502     -8.68477706      0.73292304
  C     -3.55934188     -4.44053010      0.96727602
  C     -3.41128613     -3.44536655      1.93368956
  C     -4.07886930     -3.52314553      3.14663240
  C     -4.91264100     -4.60083558      3.41081271
  C     -5.07600240     -5.59587147      2.45542512
  C     -4.40892973     -5.51693135      1.24373874
  H     -5.43584909     -4.66382672      4.35765345
  H     -5.72874517     -6.43779920      2.65477059
  H     -4.55068084     -6.29706396      0.50430452
  H     -6.20305424     -2.00191869     -3.20799674
  H     -3.94882985     -2.73901141      3.88349270
  H     -2.76368715     -2.59891949      1.73420380
  P      1.98307296     -4.21471755      1.42293565
  C      2.75840792     -5.31895743      0.19657029
  C      4.11155171     -5.21973774     -0.13742878
  C      4.64961074     -6.01496199     -1.13815314
  C      3.84582001     -6.91207475     -1.82799172
  C      2.49801680     -7.01229742     -1.51137158
  C      1.95708019     -6.21972798     -0.51161902
  H      4.26882142     -7.53235634     -2.60925379
  H      4.75231545     -4.52560447      0.39440600
  H      0.90567225     -6.30771782     -0.26361169
  H      1.86181369     -7.71004148     -2.04379508
  C      0.86578420     -5.32463022      2.33903437
  C     -0.34237457     -4.82354579      2.82556842
  C     -1.18998807     -5.62421050      3.57707408
  C     -0.84911237     -6.94420596      3.83821764
  C      0.34053349     -7.46127470      3.34180943
  C      1.19434035     -6.65950975      2.60075769
  H      2.11907646     -7.07336742      2.21519280
  H     -1.51189437     -7.57050600      4.42353279
  H      0.60848423     -8.49304173      3.53728372
  H     -0.62501542     -3.79956270      2.60671596
  H      5.70349084     -5.93302923     -1.37801403
  C      3.35468294     -3.89699835      2.58124586
  C      4.22767466     -2.85051393      2.26917359
  C      5.30890910     -2.55955308      3.08429590
  C      5.52550112     -3.29704285      4.24008713
  C      4.65817716     -4.32895088      4.57010816
  C      3.58355368     -4.63168369      3.74636635
  H      6.36729240     -3.06647778      4.88247482
  H      4.81984180     -4.90715478      5.47247550
  H      2.92243070     -5.44781473      4.01373373
  H     -2.11927981     -5.21567744      3.95698047
  H      5.97991536     -1.75098499      2.81739685
  H      4.05263613     -2.25761412      1.37788832
  P      5.74324991      2.20766315      1.27635867
  C      7.09506018      1.09637500      0.78809099
  C      8.44077058      1.46321431      0.76547436
  C      9.40627319      0.55044071      0.36566261
  C      9.04161788     -0.73254332     -0.01652416
  C      7.70269424     -1.10444693     -0.00790375
  C      6.73559675     -0.19450670      0.38420612
  H      9.79904275     -1.44262355     -0.32692478
  H      8.73512665      2.46343539      1.06183635
  H      5.68776966     -0.47987126      0.37809595
  H      7.41140004     -2.10342036     -0.31228211
  C      5.23575045      1.55305569      2.89758475
  C      3.93641401      1.82460050      3.32870867
  C      3.48183855      1.35882125      4.55057801
  C      4.32317187      0.60935708      5.36152191
  C      5.62000508      0.33781950      4.94818024
  C      6.07684224      0.80445847      3.72391260
  H      7.08977439      0.58311186      3.40769349
  H      3.96627248      0.23623442      6.31446385
  H      6.28134801     -0.24266825      5.58104619
  H      3.28077308      2.40827835      2.69188034
  H     10.44915460      0.84520949      0.35356246
  C      6.49575877      3.81160704      1.67618901
  C      6.22510122      4.89969085      0.84340361
  C      6.75474924      6.14991827      1.12137752
  C      7.55957824      6.32935532      2.23792501
  C      7.83171141      5.25572328      3.07595108
  C      7.30279956      4.00462619      2.80170926
  H      7.97206891      7.30696838      2.45792975
  H      8.45676378      5.39397760      3.95049095
  H      7.51000061      3.17433084      3.46759074
  H      2.46843739      1.57787859      4.86751543
  H      6.53579233      6.98552322      0.46638915
  H      5.59125061      4.76080009     -0.02664741
  P     -4.31657247      1.33592886     -2.21775021
  C     -5.83439038      1.10169829     -1.24046737
  C     -6.93096470      1.96460087     -1.29921823
  C     -8.07078858      1.70157766     -0.55400109
  C     -8.13706562      0.57246535      0.25033524
  C     -7.05067174     -0.29021790      0.32090940
  C     -5.90535184     -0.01977225     -0.40984195
  H     -9.03269214      0.36527421      0.82402847
  H     -6.89172256      2.84763188     -1.92663145
  H     -5.05236829     -0.68606456     -0.33933284
  H     -7.09723697     -1.17786073      0.94165237
  C     -4.66561638      0.38949337     -3.73331757
  C     -3.64968360     -0.40443273     -4.26766920
  C     -3.85770112     -1.14422611     -5.42101638
  C     -5.09098746     -1.10200648     -6.05617574
  C     -6.11470666     -0.32439509     -5.52961152
  C     -5.90790418      0.41474144     -4.37470044
  H     -6.71602330      1.00911832     -3.96314164
  H     -5.25748038     -1.67944975     -6.95786633
  H     -7.08101328     -0.29516182     -6.01941744
  H     -2.68759112     -0.43918529     -3.76815828
  H     -8.91396473      2.38047516     -0.60753742
  C     -4.41024622      3.08390213     -2.73449010
  C     -4.14581769      4.05218533     -1.76165769
  C     -4.16640332      5.39987845     -2.08015636
  C     -4.43830177      5.80282881     -3.38085216
  C     -4.69740153      4.85121402     -4.35693598
  C     -4.68530497      3.50083056     -4.03907426
  H     -4.44649017      6.85679989     -3.63236350
  H     -4.91300584      5.15955454     -5.37341006
  H     -4.90281062      2.77059105     -4.80987944
  H     -3.05675025     -1.75538391     -5.82135555
  H     -3.96411399      6.13759273     -1.31208466
  H     -3.92883233      3.73762061     -0.74696966
  P     -0.03387284      5.06208891     -0.19625482
  C      0.89746318      6.40613516      0.59489124
  C      2.11922012      6.74627157      0.00196029
  C      2.93642284      7.70956900      0.56806588
  C      2.55128163      8.34429433      1.74234092
  C      1.34713885      8.00922900      2.34421272
  C      0.52596978      7.04396266      1.77879333
  H      3.19125663      9.09652336      2.18806023
  H      2.42470477      6.24755369     -0.91236879
  H     -0.40689507      6.78569241      2.26578387
  H      1.04222428      8.49937900      3.26159024
  C     -1.61617871      4.92918604      0.69615339
  C     -2.04903062      3.67442166      1.12395726
  C     -3.25881862      3.53240438      1.78780857
  C     -4.05124095      4.64411302      2.03528005
  C     -3.63745038      5.89714509      1.60182994
  C     -2.43370199      6.04019507      0.92962934
  H     -2.13025695      7.01956979      0.57806321
  H     -4.99316723      4.53329070      2.55933453
  H     -4.25673046      6.76755147      1.78415751
  H     -1.43080229      2.80308610      0.93549409
  H      3.87798884      7.96341974      0.09463368
  C     -0.53215789      5.77440205     -1.79687265
  C     -0.73638951      4.90521039     -2.87071640
  C     -1.12130967      5.39115259     -4.10959456
  C     -1.31168098      6.75431084     -4.29160423
  C     -1.11188348      7.62786143     -3.23108812
  C     -0.72248925      7.14444264     -1.99134743
  H     -1.61006679      7.13568845     -5.26099051
  H     -1.25506489      8.69306948     -3.37026127
  H     -0.55510843      7.83569507     -1.17325589
  H     -3.58155400      2.55169502      2.11637831
  H     -1.26995108      4.70437712     -4.93515357
  H     -0.58610783      3.83967567     -2.72994969
  P      1.99448624      0.41766311     -4.33560024
  C      3.23572758      0.02329125     -5.59874070
  C      3.13599199     -1.11372998     -6.40731027
  C      4.10705998     -1.37851916     -7.35952954
  C      5.18556210     -0.51742017     -7.51630882
  C      5.29427269      0.61187319     -6.71650030
  C      4.32689595      0.88034447     -5.76074844
  H      5.94381341     -0.72931799     -8.26089533
  H      2.29855682     -1.79164724     -6.28431954
  H      4.41460266      1.75960679     -5.13106317
  H      6.13633790      1.28397100     -6.83411307
  C      0.54587641      1.05179656     -5.22779248
  C     -0.52562864      1.51656317     -4.45885033
  C     -1.65208500      2.04140624     -5.06877155
  C     -1.72498421      2.11649492     -6.45409638
  C     -0.66339145      1.66591433     -7.22526730
  C      0.46731304      1.13885448     -6.61810242
  H      1.29277859      0.79180274     -7.22879507
  H     -2.60798168      2.52920439     -6.92784086
  H     -0.71267022      1.72582792     -8.30622465
  H     -0.47200054      1.46224679     -3.37552368
  H      4.02188712     -2.26217524     -7.98131137
  C      1.45950314     -1.21319083     -3.72803470
  C      2.39260674     -1.94776383     -2.99028883
  C      2.05170606     -3.17064855     -2.43877484
  C      0.76665290     -3.67336843     -2.60218852
  C     -0.17037461     -2.94927337     -3.32732168
  C      0.17407063     -1.72716523     -3.88961580
  H      0.50008022     -4.63108216     -2.17080549
  H     -1.16781315     -3.34530084     -3.47751861
  H     -0.56239106     -1.17606708     -4.46201914
  H     -2.47526806      2.39418026     -4.45990461
  H      2.79274285     -3.73432448     -1.88623986
  H      3.39449115     -1.55499263     -2.85306831
  P     -1.01801172      0.55278933      3.33361078
  C      0.04993232     -0.29555624      4.54826247
  C      0.36569075      0.25103375      5.79634322
  C      1.14715253     -0.45814479      6.69670361
  C      1.62972013     -1.71726037      6.36484616
  C      1.33373631     -2.26291837      5.12370723
  C      0.55432474     -1.55437254      4.22422014
  H      2.23796890     -2.27060095      7.07062794
  H      0.00277232      1.23652609      6.06506205
  H      0.33274015     -1.97798260      3.25082332
  H      1.71131867     -3.24247285      4.85472960
  C     -2.69771521      0.24940018      3.98009930
  C     -3.74899036      0.16066737      3.06411336
  C     -5.05095226     -0.04643188      3.49190094
  C     -5.32276066     -0.18518821      4.84598087
  C     -4.28514555     -0.12037874      5.76615157
  C     -2.98365731      0.09548339      5.33951650
  H     -2.18420671      0.13432659      6.07026984
  H     -6.33927748     -0.35105171      5.18260300
  H     -4.48908276     -0.23845161      6.82404849
  H     -3.54064354      0.24176145      2.00264653
  H      1.37735677     -0.02458180      7.66299956
  C     -0.67924737      2.30020900      3.73668423
  C      0.45191599      2.87229216      3.14865219
  C      0.83217031      4.16845811      3.45396540
  C      0.07299099      4.91995864      4.34249173
  C     -1.07354554      4.37592175      4.90358788
  C     -1.44865276      3.07365895      4.60635924
  H      0.37560032      5.92908919      4.59581089
  H     -1.67639532      4.96482247      5.58508066
  H     -2.34273814      2.65704336      5.05560377
  H     -5.85245742     -0.10360436      2.76432235
  H      1.72064031      4.59254259      2.99980411
  H      1.03602307      2.28754371      2.44533220

