246
Energy =   -372.42697801 au
 Au      2.74404242     -2.45126919      0.12397507
 Au     -1.64508784      0.48683957     -0.12798650
 Au     -0.10721678     -0.42501658     -2.34255786
 Au      0.06616832      0.92349205      1.92389292
 Au     -2.58028471      1.61411517      2.02253977
 Au     -2.23310693     -1.96810729     -1.36708755
 Au      0.40097211     -1.47957783      0.23698696
 Au     -2.83792068      0.27813523     -2.62016617
  P     -3.82764607      2.52396901      3.81961226
  C     -5.45942898      3.24837315      3.48495736
  C     -6.47661500      2.40623927      3.02019183
  C     -7.71392631      2.92408615      2.67292093
  C     -7.94822688      4.29038961      2.76795853
  C     -6.94075008      5.13547704      3.21193619
  C     -5.70221482      4.62109746      3.56540503
  H     -8.91599898      4.69476666      2.49566937
  H     -6.29382084      1.33983926      2.93735761
  H     -4.92120128      5.28875041      3.91096814
  H     -7.11857805      6.20215744      3.28497742
  C     -2.91565050      3.81408603      4.72323325
  C     -1.84606173      4.45049051      4.09119523
  C     -1.11086253      5.42183839      4.75365762
  C     -1.43037246      5.76422224      6.05990901
  C     -2.49133877      5.13628614      6.70006653
  C     -3.23061000      4.16786059      6.03851484
  H     -4.05563065      3.68025690      6.54571961
  H     -0.85289598      6.51947207      6.57986598
  H     -2.74499086      5.40209953      7.71964042
  H     -1.59322996      4.18162297      3.07100030
  H     -8.49658718      2.26044399      2.32391742
  C     -4.11606476      1.26660548      5.10198271
  C     -3.12173512      0.30155945      5.28467648
  C     -3.23794802     -0.65767528      6.27789476
  C     -4.36215502     -0.67620772      7.09330013
  C     -5.36341255      0.26772470      6.91136729
  C     -5.24285802      1.23667240      5.92601664
  H     -4.45776073     -1.42747769      7.86837403
  H     -6.24343851      0.25384004      7.54381955
  H     -6.02972455      1.97038266      5.79405922
  H     -0.28543002      5.91100383      4.24923004
  H     -2.44897288     -1.38859839      6.41661822
  H     -2.24446912      0.31468489      4.64622921
  P      1.37424883      0.07701330      3.76280702
  C      1.63067605     -1.72623004      3.71268293
  C      2.87564085     -2.31426419      3.48511478
  C      2.99569741     -3.69354345      3.38263977
  C      1.87698542     -4.50428676      3.51112024
  C      0.63130840     -3.92897829      3.73064189
  C      0.50671167     -2.55199180      3.81837453
  H      1.97404601     -5.58159660      3.44579986
  H      3.76055762     -1.69465464      3.40391654
  H     -0.47135366     -2.10936742      3.97819143
  H     -0.24577275     -4.55658527      3.83949059
  C      0.72577051      0.36827109      5.43807785
  C     -0.03200030      1.52109439      5.66152647
  C     -0.55200704      1.79382107      6.91677095
  C     -0.33520963      0.90967715      7.96476711
  C      0.40766489     -0.24393039      7.75307871
  C      0.93829185     -0.51410128      6.50084377
  H      1.51657532     -1.41764296      6.34538095
  H     -0.74871341      1.11778713      8.94451030
  H      0.57715596     -0.93814032      8.56794127
  H     -0.21977113      2.20562174      4.84082795
  H      3.97223392     -4.13379761      3.21569155
  C      3.05763005      0.76952930      3.78952486
  C      3.67083080      1.02349984      2.55944783
  C      4.92321940      1.61260575      2.49852579
  C      5.58275393      1.95761737      3.67189676
  C      4.98532043      1.70654681      4.90002540
  C      3.73077515      1.11851213      4.96153849
  H      6.55551274      2.43277906      3.62738464
  H      5.49610617      1.97746553      5.81667468
  H      3.26923495      0.93593908      5.92514812
  H     -1.13691470      2.69285114      7.07404899
  H      5.37807275      1.81586120      1.53582730
  H      3.15010487      0.76599546      1.64298276
  P      4.98372964     -3.17624032     -0.06431732
  C      6.01413684     -2.95484845      1.42032188
  C      6.83387571     -3.94269746      1.96878327
  C      7.57446167     -3.68449268      3.11324471
  C      7.51325849     -2.43927954      3.72158890
  C      6.71150455     -1.44450954      3.17724946
  C      5.96539484     -1.70126029      2.03879990
  H      8.09212975     -2.24118807      4.61592033
  H      6.90214125     -4.91708341      1.49995111
  H      5.34236708     -0.92168851      1.61265586
  H      6.66481043     -0.46622753      3.64214232
  C      5.89802030     -2.24121666     -1.32886135
  C      5.18854605     -1.60966414     -2.35146289
  C      5.85358679     -0.90011039     -3.33907547
  C      7.23776270     -0.80259914     -3.31177261
  C      7.95403530     -1.42121566     -2.29556715
  C      7.29189390     -2.13751032     -1.31128320
  H      7.85823690     -2.61912508     -0.52213595
  H      7.75790134     -0.24410497     -4.08113975
  H      9.03497655     -1.34695475     -2.27022147
  H      4.10674667     -1.68276245     -2.37123201
  H      8.20545745     -4.46214185      3.52770308
  C      5.21560887     -4.91446653     -0.54422275
  C      4.85575591     -5.92005085      0.35972633
  C      4.95873080     -7.25646892      0.00631712
  C      5.40727073     -7.60911888     -1.26054590
  C      5.75679374     -6.61965169     -2.16880078
  C      5.66201566     -5.28149357     -1.81569189
  H      5.48563104     -8.65376810     -1.53718611
  H      6.10886487     -6.88867005     -3.15801703
  H      5.94734149     -4.51754091     -2.52979098
  H      5.28964999     -0.42087399     -4.13147920
  H      4.68766852     -8.02417309      0.72169362
  H      4.49888111     -5.65152869      1.34827757
  P      1.16347550      3.10757094      0.95403076
  C      2.04751358      2.99724284     -0.64474629
  C      2.33076915      4.11787799     -1.43075296
  C      3.02303542      3.98142897     -2.62566515
  C      3.42906594      2.72613320     -3.05902376
  C      3.13623044      1.60489117     -2.29619908
  C      2.45550711      1.74152840     -1.09645314
  H      3.97035573      2.62217522     -3.99210718
  H      2.00656577      5.10013661     -1.10592887
  H      2.24201268      0.86298074     -0.49777784
  H      3.44309858      0.62121177     -2.63170293
  C      2.33447188      3.98010439      2.05233538
  C      1.99309649      4.03984387      3.40767472
  C      2.82972879      4.65181004      4.32602633
  C      4.03200135      5.20508154      3.90494324
  C      4.38927834      5.13969184      2.56557673
  C      3.55029012      4.53022195      1.64401287
  H      3.84827359      4.48132211      0.60314735
  H      4.69194398      5.67989185      4.62125649
  H      5.32995682      5.56347912      2.23333900
  H      1.06139383      3.59429685      3.74055680
  H      3.25103856      4.85989922     -3.21822747
  C     -0.08218907      4.39912850      0.58723764
  C     -1.09986256      4.07908146     -0.31666583
  C     -2.13077937      4.96637348     -0.57500111
  C     -2.16730133      6.19439758      0.07237964
  C     -1.16042012      6.52967382      0.96607678
  C     -0.12585542      5.64107264      1.22349610
  H     -2.97759434      6.88709295     -0.12208222
  H     -1.17810469      7.48923632      1.46981147
  H      0.65533278      5.91939584      1.92111163
  H      2.54659359      4.68952339      5.37171244
  H     -2.90928900      4.69684560     -1.27988152
  H     -1.07621640      3.12228967     -0.82781844
  P      0.80695869     -0.76513938     -4.53722059
  C     -0.65939268     -1.17166359     -5.54267627
  C     -1.02424783     -0.52368323     -6.72235254
  C     -2.21138164     -0.84947589     -7.36343100
  C     -3.04884805     -1.82368290     -6.84060781
  C     -2.68715602     -2.49052126     -5.67672380
  C     -1.50354891     -2.16649399     -5.03571719
  H     -3.97964999     -2.06644194     -7.33945651
  H     -0.38221014      0.23847926     -7.14776077
  H     -1.22127401     -2.69381162     -4.12974965
  H     -3.32878446     -3.26129032     -5.26526094
  C      1.82829354     -2.25823391     -4.72749192
  C      2.19050865     -2.98553537     -3.59406630
  C      2.95961666     -4.13331882     -3.70611046
  C      3.37208257     -4.57330223     -4.95525158
  C      3.00213648     -3.86785713     -6.09344507
  C      2.23287850     -2.72051247     -5.98446867
  H      1.93779225     -2.18111681     -6.87763547
  H      3.97630612     -5.46877216     -5.04264203
  H      3.31332762     -4.21434097     -7.07201830
  H      1.86123815     -2.65176668     -2.61614292
  H     -2.48370018     -0.33327065     -8.27674383
  C      1.66061251      0.55714821     -5.44354816
  C      0.97742068      1.76260081     -5.63956912
  C      1.59309115      2.83088518     -6.27009134
  C      2.90822016      2.71820650     -6.70277968
  C      3.60287675      1.53388188     -6.49640332
  C      2.98716067      0.46086686     -5.86810370
  H      3.39146198      3.55294274     -7.19635286
  H      4.63050933      1.44145540     -6.82813819
  H      3.54101083     -0.45793853     -5.71405323
  H      3.23606738     -4.68222655     -2.81346966
  H      1.04500943      3.75417138     -6.41989863
  H     -0.04565815      1.86092915     -5.29291937
  P     -3.81550867      2.13206489     -3.76930137
  C     -4.60106992      1.85462290     -5.38095196
  C     -5.85052886      1.22752912     -5.43431508
  C     -6.42436452      0.90840636     -6.65433519
  C     -5.75504467      1.19689843     -7.83652361
  C     -4.50645883      1.80221590     -7.79419027
  C     -3.92755142      2.12284568     -6.57568440
  H     -6.20536357      0.94765179     -8.79002880
  H     -6.37426800      0.99423495     -4.51337667
  H     -2.94872001      2.58900358     -6.55198566
  H     -3.97945274      2.02804281     -8.71408454
  C     -2.63198349      3.48670034     -4.05969633
  C     -1.31328976      3.34788242     -3.62675294
  C     -0.39963916      4.37699380     -3.79834193
  C     -0.79258698      5.56036611     -4.40622815
  C     -2.10340627      5.71164838     -4.84048612
  C     -3.01790468      4.68553433     -4.66756620
  H     -4.04039919      4.81369534     -5.00470459
  H     -0.07908162      6.36499249     -4.53951605
  H     -2.41544861      6.63493030     -5.31448785
  H     -1.00329326      2.42577076     -3.14656417
  H     -7.39722151      0.43153072     -6.68241972
  C     -5.06446978      2.95383487     -2.73035377
  C     -4.91167085      2.85313507     -1.34488870
  C     -5.78068261      3.50327919     -0.48467542
  C     -6.82462010      4.26070173     -0.99830214
  C     -6.99291965      4.36195168     -2.37265846
  C     -6.11942698      3.71687878     -3.23573473
  H     -7.50782009      4.76681019     -0.32594010
  H     -7.80907349      4.94892652     -2.77764622
  H     -6.26157468      3.80305762     -4.30693083
  H      0.62004334      4.25103089     -3.45415745
  H     -5.64437574      3.41274685      0.58688843
  H     -4.10309165      2.25346987     -0.93887356
  P     -2.32705124     -4.16525670     -0.48200969
  C     -0.76477822     -5.05664423     -0.72696492
  C      0.22194122     -5.09618295      0.25900916
  C      1.44069030     -5.70732493      0.00720593
  C      1.69349759     -6.28003788     -1.23192780
  C      0.72870311     -6.22152306     -2.22912668
  C     -0.48816602     -5.60660720     -1.98245487
  H      2.63926752     -6.77517017     -1.41807661
  H      0.03273154     -4.65839966      1.23236447
  H     -1.23688096     -5.55900883     -2.76593546
  H      0.92523012     -6.65623258     -3.20231406
  C     -3.60078552     -5.29480251     -1.11708276
  C     -4.77212634     -4.73760944     -1.63653396
  C     -5.78849166     -5.55073526     -2.11195939
  C     -5.64569543     -6.93122599     -2.07822374
  C     -4.48412963     -7.49535174     -1.56782947
  C     -3.46614863     -6.68590486     -1.08885827
  H     -2.56059033     -7.13579143     -0.69791165
  H     -6.43842445     -7.56794546     -2.45286126
  H     -4.36847015     -8.57267849     -1.54267716
  H     -4.88128778     -3.65827373     -1.66874798
  H      2.18969826     -5.74734283      0.78901946
  C     -2.58749629     -4.15568637      1.31974931
  C     -2.84570462     -2.94086234      1.95555456
  C     -3.07710668     -2.88792014      3.32092915
  C     -3.05203802     -4.05426183      4.07278827
  C     -2.79738998     -5.27150627      3.45209270
  C     -2.57094622     -5.32530007      2.08547727
  H     -3.23455040     -4.01620961      5.14037732
  H     -2.78253520     -6.18505779      4.03491074
  H     -2.38079170     -6.28047567      1.60926917
  H     -6.69192622     -5.10551802     -2.51236243
  H     -3.28565143     -1.93548894      3.79492552
  H     -2.86821463     -2.02727806      1.37168101
