246
Energy =   -372.43505108 au
 Au      1.25054086      2.40837688     -1.38446482
 Au     -0.76966941     -2.50283054     -1.68024908
 Au      0.47178983     -0.22254878     -1.92121578
 Au      0.71528727      0.40051305      0.84073899
 Au     -0.60591938      1.85365615     -3.39986686
 Au      0.10784752      0.38831265      3.28562762
 Au      1.62400973     -2.09438682     -0.47641649
 Au     -1.29666263      1.85328672     -0.76111602
  P      3.66722200      2.00784525     -1.51864350
  C      4.72881565      3.48798475     -1.61574254
  C      5.20513258      4.13975316     -0.47635327
  C      5.97346150      5.28797895     -0.59213109
  C      6.27424465      5.80455349     -1.84455206
  C      5.78895514      5.17677550     -2.98469472
  C      5.01319931      4.03414866     -2.87247185
  H      6.88202281      6.69710717     -1.93302824
  H      4.98594156      3.74275113      0.50831067
  H      4.63443725      3.55121038     -3.76727777
  H      6.01470715      5.57838818     -3.96568156
  C      4.38065511      0.92317539     -2.80358085
  C      3.55246885      0.07048807     -3.53181836
  C      4.06980183     -0.79174859     -4.48510641
  C      5.43432523     -0.80295734     -4.73832249
  C      6.27272544      0.05082340     -4.03238857
  C      5.75454626      0.90528319     -3.07197999
  H      6.41899306      1.56912737     -2.53099051
  H      5.84285518     -1.46897929     -5.48898646
  H      7.33809415      0.05218456     -4.23098799
  H      2.48245592      0.08684342     -3.35546295
  H      6.34149827      5.77809502      0.30178691
  C      4.19546272      1.22965726      0.04403307
  C      3.62319203      1.71019593      1.22589334
  C      3.99613155      1.19747915      2.45799331
  C      4.93803817      0.18053949      2.52991783
  C      5.49657562     -0.32100114      1.36221015
  C      5.13039937      0.19745876      0.12880980
  H      5.23355022     -0.22221521      3.49151261
  H      6.22663105     -1.12077517      1.41099688
  H      5.57841358     -0.20776313     -0.77090625
  H      3.40463022     -1.44618891     -5.03697671
  H      3.54756273      1.59589829      3.36075039
  H      2.88449106      2.50082941      1.17752066
  P     -3.50041889      1.57314750      0.11017298
  C     -4.28182166      3.14186133      0.58076597
  C     -4.96965670      3.92434444     -0.35009344
  C     -5.48422261      5.15903169      0.01486290
  C     -5.29437133      5.64393632      1.30182356
  C     -4.58072343      4.89096438      2.22490297
  C     -4.07652381      3.65091041      1.86767848
  H     -5.69807042      6.60914996      1.58361678
  H     -5.10868736      3.56263728     -1.36278772
  H     -3.52770678      3.06366546      2.59598464
  H     -4.41834946      5.26819944      3.22807418
  C     -3.83094581      0.47381453      1.53134850
  C     -2.93477310     -0.55581668      1.81989629
  C     -3.17946907     -1.43093465      2.86804064
  C     -4.33374102     -1.30328128      3.62801630
  C     -5.23995093     -0.29131449      3.34067767
  C     -4.99061638      0.59299905      2.30250023
  H     -5.70298854      1.38194635      2.09053223
  H     -4.52420417     -1.99223121      4.44236888
  H     -6.14450811     -0.18741922      3.92836516
  H     -2.04169861     -0.67473656      1.21684050
  H     -6.03434464      5.74596988     -0.71146065
  C     -4.58638604      0.84034588     -1.15559491
  C     -4.00049941      0.08518731     -2.17301852
  C     -4.77787893     -0.51140905     -3.15162555
  C     -6.15698623     -0.35735260     -3.13094478
  C     -6.75431721      0.37726833     -2.11524857
  C     -5.97805169      0.96558667     -1.12904136
  H     -6.76586956     -0.81499958     -3.90161733
  H     -7.83172640      0.49141082     -2.08906753
  H     -6.45600366      1.52985940     -0.33634974
  H     -2.46751881     -2.21563427      3.09189356
  H     -4.30389134     -1.09761399     -3.93029592
  H     -2.92235665     -0.03410156     -2.19719353
  P      0.92768379      4.68377231     -0.20844387
  C     -0.66272649      5.50598616     -0.59624328
  C     -1.29208719      6.37587531      0.29880722
  C     -2.46197502      7.02581664     -0.05956695
  C     -3.01817296      6.82583724     -1.31614549
  C     -2.39941138      5.97047169     -2.21637873
  C     -1.22832407      5.32055241     -1.85855121
  H     -3.93071247      7.33967328     -1.59420774
  H     -0.86271667      6.54763765      1.27930076
  H     -0.74101792      4.66576755     -2.57370336
  H     -2.82483156      5.81153627     -3.20058256
  C      2.05208377      6.10512064     -0.43969221
  C      2.63938204      6.24951269     -1.69930313
  C      3.42864942      7.35173512     -1.98658195
  C      3.65398779      8.31644609     -1.01416262
  C      3.07605390      8.18133670      0.24082157
  C      2.27047675      7.08984209      0.52654477
  H      1.80482608      7.00927524      1.50203299
  H      4.27607879      9.17551994     -1.23573394
  H      3.24397119      8.93560174      1.00079608
  H      2.47258294      5.49072173     -2.45763565
  H     -2.94061285      7.69515857      0.64588606
  C      0.81884316      4.41175824      1.58803160
  C     -0.37870182      3.94532957      2.13709896
  C     -0.46278242      3.61248670      3.47922094
  C      0.65566911      3.72418078      4.29651762
  C      1.85961604      4.15783554      3.75838357
  C      1.94392439      4.49374708      2.41473771
  H      0.58377809      3.47571570      5.34899558
  H      2.73795141      4.24055482      4.38810270
  H      2.88987500      4.83296197      2.00734296
  H      3.87132321      7.45511385     -2.97042421
  H     -1.40705477      3.27708686      3.89121215
  H     -1.25705256      3.84832783      1.50729404
  P     -0.46553689      0.20272211      5.55753664
  C     -1.66944940      1.45034374      6.10433258
  C     -1.50241049      2.24909895      7.23592207
  C     -2.45141095      3.20688868      7.56300847
  C     -3.57683611      3.37875649      6.76948365
  C     -3.75095074      2.59338684      5.63707677
  C     -2.79888428      1.64413457      5.30106203
  H     -4.31710191      4.12582033      7.03052677
  H     -0.62917181      2.12188178      7.86531525
  H     -2.92744204      1.03995046      4.40971315
  H     -4.62797063      2.72113910      5.01236513
  C      0.96730721      0.39227936      6.65689689
  C      2.11945977      0.99480629      6.14663968
  C      3.24477561      1.15753480      6.93948899
  C      3.23413350      0.71382745      8.25487425
  C      2.09651851      0.10859623      8.77260034
  C      0.96959254     -0.05360437      7.98186402
  H      0.08796711     -0.53433308      8.39051112
  H      4.11351080      0.83706074      8.87598884
  H      2.08662593     -0.24059771      9.79855957
  H      2.12584827      1.33816293      5.11757872
  H     -2.31010007      3.82107540      8.44477075
  C     -1.18146137     -1.38473719      6.09161721
  C     -2.50266404     -1.53026707      6.51595698
  C     -2.99007712     -2.77750776      6.87991130
  C     -2.16532906     -3.89249437      6.83312363
  C     -0.84854450     -3.75944363      6.40993401
  C     -0.36481649     -2.51856257      6.02861888
  H     -2.54502714     -4.86290126      7.13030289
  H     -0.19350683     -4.62294508      6.38312529
  H      0.66269292     -2.42107413      5.69448294
  H      4.13083365      1.62766076      6.52836783
  H     -4.01677259     -2.87447256      7.21365195
  H     -3.15199220     -0.66431730      6.57358203
  P     -0.72494776      1.08462289     -5.65815469
  C     -1.16871470     -0.68255080     -5.58933895
  C     -2.45178287     -1.14098106     -5.89285534
  C     -2.79376871     -2.47061027     -5.68537296
  C     -1.86417072     -3.35988551     -5.16510985
  C     -0.58009911     -2.91767480     -4.86794279
  C     -0.23712235     -1.59038765     -5.07720439
  H     -2.13282119     -4.39638246     -4.99749730
  H     -3.18712706     -0.45635744     -6.30031034
  H      0.76790801     -1.25526617     -4.84560571
  H      0.16196593     -3.61150510     -4.49055478
  C      0.94016753      1.07807207     -6.38340354
  C      1.86144883      2.02251346     -5.92365493
  C      3.15642258      2.04644860     -6.41571748
  C      3.55105787      1.12189494     -7.37304733
  C      2.64544877      0.17690746     -7.83722552
  C      1.34833888      0.15204112     -7.34833943
  H      0.65080881     -0.59528470     -7.70910619
  H      4.56522281      1.13504453     -7.75458355
  H      2.95088440     -0.54676660     -8.58395688
  H      1.55709361      2.73988972     -5.16845248
  H     -3.79165100     -2.81264026     -5.93462944
  C     -1.84546454      1.80274661     -6.89383620
  C     -3.08977012      2.26058111     -6.44741870
  C     -3.99464990      2.81403523     -7.33885937
  C     -3.66278013      2.92936582     -8.68237646
  C     -2.42463827      2.49039861     -9.13136732
  C     -1.51788362      1.92968756     -8.24517336
  H     -4.36781796      3.36768788     -9.37876346
  H     -2.16122936      2.58541403    -10.17833215
  H     -0.55247463      1.59141188     -8.60375769
  H      3.86025886      2.78351762     -6.04572682
  H     -4.95744216      3.16199081     -6.98279277
  H     -3.34184562      2.18469320     -5.39403931
  P      3.02950893     -3.60513467      0.65600225
  C      4.75214813     -3.49484720      0.08745540
  C      5.84198777     -3.89018824      0.86611020
  C      7.13351755     -3.76705984      0.37629298
  C      7.35432318     -3.25255044     -0.89440130
  C      6.27801872     -2.85636790     -1.67685495
  C      4.98652641     -2.97137305     -1.18712127
  H      8.36495284     -3.15710156     -1.27345707
  H      5.68018825     -4.29211788      1.85981425
  H      4.14720968     -2.64601674     -1.79355765
  H      6.44305286     -2.45107398     -2.66875063
  C      2.52726275     -5.30749268      0.26411250
  C      1.49216269     -5.90824970      0.98654185
  C      0.99193399     -7.14390439      0.60930051
  C      1.51480824     -7.79740854     -0.49854663
  C      2.54090705     -7.20894442     -1.22574612
  C      3.03982422     -5.96995110     -0.85381253
  H      3.83640686     -5.51583338     -1.43259118
  H      1.12213663     -8.76270574     -0.79560579
  H      2.95466709     -7.71609933     -2.08974710
  H      1.07681505     -5.40191542      1.85027586
  H      7.97133317     -4.07542707      0.99069628
  C      3.11609921     -3.53265972      2.47058768
  C      2.88920763     -2.30100048      3.08752932
  C      2.98379032     -2.16876178      4.46376739
  C      3.29266219     -3.27340486      5.24690305
  C      3.50695625     -4.50681232      4.64625413
  C      3.42502994     -4.63837571      3.26821278
  H      3.36773856     -3.17176906      6.32325502
  H      3.74619583     -5.37201583      5.25355494
  H      3.59907398     -5.60496779      2.80960579
  H      0.18837851     -7.59465590      1.18083072
  H      2.82150963     -1.20058783      4.92380139
  H      2.64363290     -1.43705666      2.48014724
  P     -2.30165546     -4.20237998     -1.09101314
  C     -4.07377210     -3.81061894     -1.15278588
  C     -4.79955590     -3.97975290     -2.33559806
  C     -6.13181282     -3.60293998     -2.40060618
  C     -6.74934177     -3.02650479     -1.29823717
  C     -6.02758277     -2.82212153     -0.13003505
  C     -4.69961251     -3.21082459     -0.05636594
  H     -7.79041995     -2.73092017     -1.35241194
  H     -4.31985856     -4.41536690     -3.20537203
  H     -4.14382706     -3.05308012      0.86155385
  H     -6.50030922     -2.36058464      0.72962361
  C     -2.03038310     -4.65502062      0.65596228
  C     -1.19644120     -3.86648829      1.44839210
  C     -0.95930770     -4.19003684      2.77724520
  C     -1.55821899     -5.31303517      3.33125807
  C     -2.39040372     -6.10755280      2.55373555
  C     -2.62564790     -5.78325614      1.22734449
  H     -3.27431448     -6.41276022      0.62902428
  H     -1.37506813     -5.56959579      4.36774813
  H     -2.85776198     -6.98600552      2.98311526
  H     -0.72399508     -2.98995285      1.02017224
  H     -6.68917793     -3.75662996     -3.31741301
  C     -2.09225222     -5.77644817     -1.97100642
  C     -0.83655976     -6.03027002     -2.53005746
  C     -0.58311040     -7.22230989     -3.18876985
  C     -1.58352562     -8.17879528     -3.29946903
  C     -2.83556123     -7.93706771     -2.75053131
  C     -3.09228755     -6.74532688     -2.08991361
  H     -1.38805267     -9.11087144     -3.81632784
  H     -3.61916766     -8.68075421     -2.83692641
  H     -4.07540950     -6.56561997     -1.67018600
  H     -0.30434189     -3.56651246      3.37595496
  H      0.39580438     -7.40309096     -3.61766418
  H     -0.05386382     -5.28317205     -2.44296728
