#B3LYP/6-31+G(d) OPT FREQ

246, Energy =   -372.43324925 au

0 1
 Au      0.73075323     -0.06611106     -0.03231451
 Au     -2.56419554     -0.54776297     -2.95768078
 Au      0.07249704     -0.90299790     -2.59136314
 Au     -1.91581936     -1.59729886     -0.67690399
 Au      2.07597860     -2.37279850     -1.53217961
 Au      0.62006131      0.82060546      2.41209398
 Au      2.51283388      0.18870438     -2.21194581
 Au     -1.56649435      1.10557284      0.74636767
  P     -1.76042689     -3.16804443      1.18001462
  C     -1.60740933     -4.86104336      0.52699146
  C     -1.47456918     -5.97187729      1.36811010
  C     -1.35981371     -7.24618081      0.83530478
  C     -1.37722653     -7.43193233     -0.54166619
  C     -1.51124801     -6.33825958     -1.38432351
  C     -1.62033332     -5.06261138     -0.85319592
  H     -1.28681052     -8.42892604     -0.95654861
  H     -1.46031885     -5.83405348      2.44372702
  H     -1.72046113     -4.20940564     -1.51483685
  H     -1.52844578     -6.47639976     -2.45914414
  C     -3.18329651     -3.27085075      2.31184988
  C     -3.37511219     -2.23552834      3.23361532
  C     -4.45263253     -2.25660052      4.10398702
  C     -5.36589567     -3.30176443      4.05735577
  C     -5.20295534     -4.31762925      3.12658275
  C     -4.12355527     -4.30136002      2.25561922
  H     -4.00960951     -5.10030889      1.53243321
  H     -6.20745510     -3.31739171      4.73958894
  H     -5.91936221     -5.12926270      3.07654220
  H     -2.66914141     -1.41154888      3.26626063
  H     -1.25827408     -8.09823334      1.49727653
  C     -0.34162134     -3.09075310      2.33868211
  C      0.90393805     -2.74187970      1.81662663
  C      2.02509035     -2.63744777      2.62320241
  C      1.92422143     -2.91522477      3.97928566
  C      0.70103028     -3.30148774      4.50869389
  C     -0.42529315     -3.37832795      3.70257008
  H      2.79670766     -2.83938552      4.61742859
  H      0.61847452     -3.53847449      5.56303604
  H     -1.37295374     -3.66490264      4.14259671
  H     -4.58675824     -1.45137999      4.81728917
  H      2.97745043     -2.35780990      2.18756679
  H      0.99724637     -2.56645491      0.75170807
  P      4.51821987      1.33027677     -1.56392497
  C      5.75479895      0.08696320     -1.06492779
  C      7.04064153      0.00369889     -1.59780258
  C      7.92770247     -0.96130411     -1.14061178
  C      7.54568992     -1.84806047     -0.14453015
  C      6.26402349     -1.77814683      0.38755781
  C      5.37246794     -0.82547062     -0.07575460
  H      8.24205191     -2.59616222      0.21525596
  H      7.35281393      0.69733817     -2.36979299
  H      4.36894835     -0.77866021      0.33659999
  H      5.95802048     -2.46882398      1.16474070
  C      4.40666984      2.30649026     -0.02890484
  C      3.16070830      2.69599402      0.46097902
  C      3.05654767      3.43314346      1.63069303
  C      4.20233708      3.79392482      2.32513594
  C      5.44843686      3.39598899      1.85971164
  C      5.55273280      2.65451326      0.69382532
  H      6.52879833      2.34058564      0.34126983
  H      4.12743340      4.38732762      3.22841702
  H      6.34412595      3.66570862      2.40694043
  H      2.26509473      2.42511116     -0.08508137
  H      8.92485469     -1.01392559     -1.56178211
  C      5.36685387      2.38540767     -2.77320667
  C      5.51211840      1.87648528     -4.06911600
  C      6.10558734      2.63836038     -5.06216337
  C      6.54692821      3.92479042     -4.77970074
  C      6.39377714      4.44422110     -3.50200449
  C      5.80602471      3.68285362     -2.50233136
  H      7.00562219      4.52344849     -5.55767102
  H      6.73208257      5.44949351     -3.27932698
  H      5.69154276      4.09905811     -1.50812509
  H      2.07940510      3.73086936      1.99352132
  H      6.21816428      2.22970092     -6.05959335
  H      5.15448600      0.87646205     -4.29352183
  P      3.03716964     -4.49989345     -1.11608871
  C      4.75079508     -4.59053737     -1.71707942
  C      5.55016678     -5.72074908     -1.51614321
  C      6.84383011     -5.76008338     -2.01008958
  C      7.35688098     -4.67918973     -2.71572688
  C      6.57037516     -3.55560756     -2.92721487
  C      5.27745652     -3.51230460     -2.42977166
  H      8.36890769     -4.71399125     -3.10143084
  H      5.15686896     -6.57130536     -0.97083120
  H      4.66726131     -2.62925778     -2.58970954
  H      6.96423679     -2.70811200     -3.47640822
  C      2.18311093     -5.79462356     -2.06560358
  C      1.42788182     -5.40911134     -3.17527109
  C      0.79464264     -6.35535075     -3.96537765
  C      0.90372763     -7.70404456     -3.65253854
  C      1.64573138     -8.09936739     -2.54724823
  C      2.28442365     -7.15473844     -1.75932015
  H      2.86201160     -7.47579974     -0.90007121
  H      0.40955022     -8.44595656     -4.26850607
  H      1.73151375     -9.15069078     -2.29840298
  H      1.33663459     -4.35527378     -3.41799510
  H      7.45418429     -6.64034521     -1.84533641
  C      3.10209439     -5.14622373      0.58041252
  C      4.23123890     -4.98069242      1.38602557
  C      4.22390193     -5.40866486      2.70486047
  C      3.08861741     -6.00138572      3.24070618
  C      1.95769642     -6.16318471      2.45173181
  C      1.96085129     -5.73262004      1.13509950
  H      3.08484386     -6.33635446      4.27117265
  H      1.06698358     -6.62343714      2.86378802
  H      1.07313960     -5.85599456      0.52595428
  H      0.21605503     -6.03896623     -4.82575606
  H      5.11011240     -5.27959072      3.31538565
  H      5.12510682     -4.52616508      0.97462228
  P     -3.32549015      0.12272763     -5.12951810
  C     -5.01392172      0.77182680     -5.29378436
  C     -5.44645844      1.52603226     -6.38921367
  C     -6.75471652      1.98010975     -6.45273155
  C     -7.64722653      1.68979682     -5.42942206
  C     -7.22914298      0.94199534     -4.33701279
  C     -5.92152189      0.48738338     -4.26959304
  H     -8.66850218      2.04818566     -5.48268761
  H     -4.75538000      1.76370330     -7.18987823
  H     -5.59258487     -0.09166829     -3.41229742
  H     -7.92086223      0.71545722     -3.53382632
  C     -3.24555767     -1.30265565     -6.25983618
  C     -2.26914552     -2.27271326     -6.01389429
  C     -2.14214936     -3.37672953     -6.84123451
  C     -2.99709341     -3.53277046     -7.92381581
  C     -3.97775819     -2.58214030     -8.17182476
  C     -4.10333938     -1.47418524     -7.34797177
  H     -4.87517637     -0.74087152     -7.55143384
  H     -2.90229301     -4.39735022     -8.57015415
  H     -4.65044740     -2.70295006     -9.01297585
  H     -1.60735707     -2.16002786     -5.16078629
  H     -7.07845478      2.56385521     -7.30658262
  C     -2.26176751      1.35900044     -5.94179697
  C     -2.51386713      2.72420046     -5.78104051
  C     -1.65151182      3.66818420     -6.31762002
  C     -0.51630891      3.26543760     -7.00730314
  C     -0.24700599      1.91163199     -7.15948902
  C     -1.11020606      0.96507540     -6.62820959
  H      0.15628168      4.00460746     -7.42607909
  H      0.63601590      1.58956935     -7.69938319
  H     -0.89253625     -0.08939473     -6.75699218
  H     -1.37826890     -4.11851502     -6.63618176
  H     -1.86879625      4.72358781     -6.20019770
  H     -3.39829269      3.04788278     -5.24329626
  P     -1.17508815      3.52125229     -0.53436275
  C     -2.32468926      4.66172487     -1.41704267
  C     -3.16459003      5.48693620     -0.66223793
  C     -4.07827291      6.32771376     -1.27627569
  C     -4.17417739      6.36027812     -2.66065144
  C     -3.34953467      5.54461335     -3.42172354
  C     -2.43736643      4.69869214     -2.80788429
  H     -4.88554024      7.01953075     -3.14351958
  H     -3.09310147      5.48259869      0.41928163
  H     -1.80004648      4.07482288     -3.42373300
  H     -3.41300929      5.56949069     -4.50349552
  C      0.17481049      3.41365240     -1.77478285
  C     -0.01386774      2.50477025     -2.82015000
  C      0.93419043      2.35767547     -3.82372589
  C      2.09313783      3.12591109     -3.79948695
  C      2.29748098      4.02407477     -2.76130126
  C      1.35225806      4.16293482     -1.75504903
  H      1.53765125      4.86566807     -0.95150895
  H      2.82875309      3.02495251     -4.58856814
  H      3.19986836      4.62420178     -2.73370253
  H     -0.91752063      1.90490188     -2.85098088
  H     -4.71568469      6.96072760     -0.66989412
  C     -0.54014912      4.68334917      0.72958968
  C     -0.49048522      4.26902763      2.06091112
  C     -0.08081093      5.13241977      3.06565889
  C      0.30050908      6.42882767      2.75215824
  C      0.24928923      6.86093975      1.43336739
  C     -0.17923532      6.00329278      0.43267313
  H      0.62394428      7.10421569      3.53553142
  H      0.53233379      7.87690140      1.18361515
  H     -0.25384428      6.36692150     -0.58594650
  H      0.75237449      1.66825873     -4.63937753
  H     -0.07225974      4.79362898      4.09423343
  H     -0.79972801      3.26191400      2.31790395
  P     -3.85749542      1.45301678      1.40018869
  C     -5.13943598      0.17700638      1.66802321
  C     -6.17815845      0.33217932      2.58927925
  C     -7.19237562     -0.61015719      2.66509234
  C     -7.19232590     -1.71071535      1.81898642
  C     -6.16802932     -1.87166676      0.89567018
  C     -5.15167770     -0.93374244      0.82366232
  H     -7.98902386     -2.44261318      1.87895106
  H     -6.19819644      1.19384790      3.24632603
  H     -4.35289930     -1.06266497      0.09946865
  H     -6.15849578     -2.72926584      0.23296442
  C     -4.76067815      2.45311637      0.17301283
  C     -4.43395320      2.29305434     -1.17448697
  C     -5.15511136      2.94542976     -2.16128362
  C     -6.21750389      3.76770552     -1.81456604
  C     -6.55645995      3.93122346     -0.47781271
  C     -5.83962361      3.27478583      0.51026367
  H     -6.12246554      3.39626885      1.54978012
  H     -6.78021779      4.28022101     -2.58585748
  H     -7.38799619      4.56944065     -0.20267393
  H     -3.60235416      1.65188851     -1.45245084
  H     -7.99086285     -0.47918131      3.38610381
  C     -3.81683010      2.41619703      2.93800297
  C     -3.72044707      1.74858357      4.16361806
  C     -3.54778984      2.45473001      5.34324337
  C     -3.44832267      3.83993928      5.31730456
  C     -3.51478522      4.51290630      4.10564476
  C     -3.69300258      3.80700067      2.92573815
  H     -3.31756772      4.39304411      6.23984505
  H     -3.42692271      5.59281945      4.07628049
  H     -3.73995225      4.34186396      1.98494961
  H     -4.88167910      2.81611355     -3.20191400
  H     -3.49277278      1.92150585      6.28547699
  H     -3.78916819      0.66706700      4.19175888
  P      1.38573944      1.12440419      4.63746830
  C      1.16622273      2.68916479      5.54844584
  C     -0.01501120      2.95087385      6.24759016
  C     -0.19433303      4.16192505      6.89787136
  C      0.79384788      5.13609702      6.84959380
  C      1.96506869      4.89333764      6.14489397
  C      2.14881921      3.68191973      5.49678059
  H      0.65233071      6.08052256      7.36136764
  H     -0.79517164      2.19920994      6.29348800
  H      3.06993610      3.49894649      4.95612008
  H      2.74188320      5.64788666      6.10109291
  C      3.17146165      0.80975372      4.74249194
  C      3.82433911      0.33120498      3.60448096
  C      5.18854096      0.08937984      3.61484514
  C      5.92389562      0.32036232      4.76904700
  C      5.29005343      0.80173819      5.90695046
  C      3.92648927      1.05087114      5.89566270
  H      3.44754648      1.44951627      6.78263649
  H      6.99117599      0.13294413      4.77966006
  H      5.86194384      0.99077442      6.80791727
  H      3.25309769      0.15926255      2.69817154
  H     -1.10928307      4.34346415      7.44989528
  C      0.57807922     -0.08147686      5.73691738
  C     -0.78338356     -0.31667171      5.52325370
  C     -1.49030295     -1.17899375      6.34595954
  C     -0.84280657     -1.83207909      7.38620231
  C      0.51427627     -1.62303571      7.59369302
  C      1.22144465     -0.75266983      6.77707428
  H     -1.39384156     -2.50647213      8.03085916
  H      1.02586967     -2.13614505      8.39962816
  H      2.28028583     -0.60108283      6.95029895
  H      5.67897322     -0.27249216      2.71804069
  H     -2.54766697     -1.34391669      6.17408743
  H     -1.28665749      0.18118164      4.70040187

