#B3LYP/6-31+G(d) OPT FREQ

246, Energy =   -372.43090350 au

0 1
 Au     -0.28337494      0.22858959     -0.75843458
 Au      1.04950510     -1.67661550      0.74720439
 Au      1.41907911      2.36604778     -0.57124264
 Au      1.12843500      1.38335295     -2.92004317
 Au     -1.39076307     -2.10020182     -0.48986473
 Au     -1.28946735      2.92115367      0.42476806
 Au     -1.24583210      2.38450102      3.03046030
 Au      0.90972504      3.40328220      2.00602127
  P      3.11973049     -2.69375111     -0.10757930
  C      3.34493643     -3.17917202     -1.85653269
  C      4.36394511     -4.06117068     -2.23341128
  C      4.50788161     -4.45045334     -3.55484549
  C      3.62684078     -3.97868292     -4.51924134
  C      2.60582748     -3.11271044     -4.15481239
  C      2.46845018     -2.70910731     -2.83387768
  H      3.73281322     -4.28719443     -5.55256250
  H      5.04375974     -4.44985930     -1.48334660
  H      1.67042982     -2.02700482     -2.55842596
  H      1.91452213     -2.74848359     -4.90460092
  C      3.35199788     -4.31381776      0.69696667
  C      2.25414844     -5.17850816      0.69069779
  C      2.35323203     -6.45373602      1.22174588
  C      3.55263923     -6.88011752      1.77854369
  C      4.64444253     -6.02301028      1.80594603
  C      4.54890385     -4.74760004      1.26801222
  H      5.40880243     -4.08853062      1.29395284
  H      3.63513753     -7.87864279      2.19114488
  H      5.58001534     -6.34968246      2.24492536
  H      1.31922652     -4.84330554      0.25383285
  H      5.30518383     -5.13025214     -3.83164619
  C      4.64654428     -1.78959071      0.30615271
  C      5.64151468     -1.46901933     -0.61807489
  C      6.76192040     -0.74986774     -0.22369060
  C      6.89647415     -0.32724094      1.09198739
  C      5.90653159     -0.63007153      2.01806581
  C      4.79291314     -1.35471731      1.62723663
  H      7.77123496      0.23584815      1.39499678
  H      6.00380418     -0.30505488      3.04764278
  H      4.02787769     -1.60228527      2.35506253
  H      1.49459131     -7.11515773      1.19839061
  H      7.53608407     -0.52539303     -0.94843450
  H      5.54861121     -1.78812690     -1.64982160
  P      0.87102567     -1.65626215      3.22258211
  C     -0.66898477     -2.31033215      3.95675308
  C     -0.70136443     -2.86978841      5.23885433
  C     -1.87054778     -3.42056015      5.73916613
  C     -3.02753052     -3.41983373      4.97054589
  C     -3.01039499     -2.85948989      3.70023091
  C     -1.84082572     -2.30982796      3.19929117
  H     -3.93881537     -3.86075296      5.35652292
  H      0.19802583     -2.88389319      5.84349278
  H     -1.83560672     -1.88235485      2.20204397
  H     -3.90612745     -2.86822813      3.09085844
  C      1.10162300     -0.03261340      4.02512575
  C      2.19954778      0.74068530      3.63303164
  C      2.46343589      1.95826385      4.24386940
  C      1.60867793      2.44368897      5.22796755
  C      0.48981050      1.70636861      5.59274280
  C      0.24334387      0.47142945      5.00390723
  H     -0.61523066     -0.10746783      5.32335146
  H      1.81667647      3.39242257      5.70760036
  H     -0.18287179      2.07741657      6.35688716
  H      2.85647029      0.38294712      2.84788558
  H     -1.87588275     -3.86057455      6.72951718
  C      2.12452747     -2.69612453      4.04819310
  C      2.00479443     -4.08229603      3.89851919
  C      2.93670805     -4.93733779      4.46153543
  C      4.02115468     -4.42320160      5.16054310
  C      4.15949884     -3.05040288      5.30225342
  C      3.21747483     -2.19096893      4.75496387
  H      4.75461100     -5.09239337      5.59428881
  H      5.00172833     -2.64135337      5.84823924
  H      3.33080798     -1.12209092      4.89355463
  H      3.34464320      2.52232371      3.96304445
  H      2.81965910     -6.00879026      4.34812671
  H      1.16816368     -4.49012632      3.34096476
  P     -2.17699293     -4.36289060     -0.49886120
  C     -0.92864431     -5.50918250     -1.17420131
  C     -0.82780061     -6.84711167     -0.78064711
  C      0.11839836     -7.68177246     -1.35601344
  C      0.97214568     -7.19901952     -2.33828953
  C      0.88093157     -5.87342021     -2.73839112
  C     -0.05527133     -5.03395420     -2.15561134
  H      1.70854409     -7.85343523     -2.78951291
  H     -1.48562894     -7.23853777     -0.01361521
  H     -0.10990283     -3.99498463     -2.46261933
  H      1.54319066     -5.48988925     -3.50567395
  C     -3.63396913     -4.71405916     -1.53397090
  C     -4.39908726     -3.64923552     -2.01267235
  C     -5.51299628     -3.88310018     -2.80503717
  C     -5.87177530     -5.18154477     -3.13686300
  C     -5.11412905     -6.24838477     -2.67141277
  C     -4.00395707     -6.01857116     -1.87561053
  H     -3.41751391     -6.85736903     -1.51823701
  H     -6.74009131     -5.36227753     -3.75931400
  H     -5.38923635     -7.26437178     -2.92959660
  H     -4.11728218     -2.63223749     -1.75891011
  H      0.18381787     -8.71581412     -1.03802498
  C     -2.57975566     -5.12901570      1.10432841
  C     -1.53786697     -5.39271499      2.00018097
  C     -1.79193112     -5.98388658      3.22627216
  C     -3.09550171     -6.30040011      3.58796496
  C     -4.14138677     -6.00937308      2.72320710
  C     -3.88807757     -5.42537681      1.49032387
  H     -3.29489350     -6.76839831      4.54470366
  H     -5.16120183     -6.24427883      3.00527713
  H     -4.71141223     -5.21189819      0.81817699
  H     -6.10397717     -3.04937085     -3.16627328
  H     -0.97157709     -6.19513732      3.90275428
  H     -0.51925886     -5.14025485      1.72527407
  P      1.14675334      0.53756130     -5.12181523
  C      0.69940019      1.60138069     -6.52454920
  C      1.61478677      2.55863459     -6.97421550
  C      1.27853152      3.42492264     -8.00224642
  C      0.02077793      3.35650489     -8.58786108
  C     -0.90304554      2.42444364     -8.13398732
  C     -0.57071300      1.55647848     -7.10425148
  H     -0.23952465      4.03037906     -9.39539162
  H      2.59821389      2.61640576     -6.52014695
  H     -1.29980856      0.83416049     -6.75444102
  H     -1.88685521      2.36904755     -8.58533484
  C      0.11258860     -0.94923071     -5.34662443
  C     -0.63118782     -1.42130194     -4.26516477
  C     -1.42784528     -2.55045139     -4.38387108
  C     -1.48480361     -3.23383063     -5.58986121
  C     -0.74903854     -2.77622798     -6.67547238
  C      0.04019049     -1.64269942     -6.55947024
  H      0.60266086     -1.29305925     -7.41732326
  H     -2.10349608     -4.11841109     -5.68489452
  H     -0.79220180     -3.30392825     -7.62100481
  H     -0.58635544     -0.89565792     -3.31888801
  H      2.00196460      4.15316191     -8.34996103
  C      2.83739543     -0.01056353     -5.51397518
  C      3.74231816     -0.15593052     -4.45982098
  C      5.03913924     -0.58591235     -4.68961391
  C      5.45281446     -0.87849372     -5.98157710
  C      4.56666541     -0.72971891     -7.04025112
  C      3.27003944     -0.29646024     -6.81193397
  H      6.46610388     -1.21620522     -6.16431622
  H      4.88785526     -0.94909853     -8.05173293
  H      2.59273107     -0.17137096     -7.64887670
  H     -2.00613364     -2.89249324     -3.53290266
  H      5.72672299     -0.69341752     -3.85825513
  H      3.42074099      0.06941101     -3.44848299
  P     -2.54009045      3.46407330     -1.49414975
  C     -3.53463907      2.08723355     -2.14060840
  C     -4.84925877      1.89363871     -1.71108987
  C     -5.58544084      0.81123073     -2.16710323
  C     -5.01861287     -0.09047216     -3.05708073
  C     -3.70303175      0.07610781     -3.46818381
  C     -2.96098290      1.14999092     -3.00419405
  H     -5.60443400     -0.91875864     -3.43666271
  H     -5.30315926      2.60086221     -1.02601100
  H     -1.93343754      1.27493316     -3.32927418
  H     -3.25557484     -0.62848900     -4.15943938
  C     -1.56008715      4.02872582     -2.91725863
  C     -0.30907521      4.60342906     -2.68049749
  C      0.47387037      5.06050075     -3.72921745
  C      0.01006240      4.96166075     -5.03342992
  C     -1.23730712      4.40538935     -5.28159746
  C     -2.01647848      3.93620218     -4.23572846
  H     -2.98377380      3.49418229     -4.44478837
  H      0.61910185      5.31710218     -5.85622756
  H     -1.60623896      4.33206525     -6.29794786
  H      0.04972987      4.70082440     -1.66206916
  H     -6.60833547      0.67833588     -1.83452724
  C     -3.74902376      4.78763623     -1.19880253
  C     -4.32479520      4.88304893      0.07144106
  C     -5.27013553      5.85888167      0.34297766
  C     -5.64277008      6.76086584     -0.64403938
  C     -5.06694593      6.68275625     -1.90468181
  C     -4.12749811      5.70258997     -2.18381603
  H     -6.37785487      7.52730302     -0.42890558
  H     -5.35044455      7.38810059     -2.67711195
  H     -3.68477553      5.65096438     -3.17181967
  H      1.44405358      5.49850668     -3.52506413
  H     -5.71226906      5.91789481      1.33080485
  H     -4.02376545      4.18958910      0.85038721
  P      2.84874768      4.63400095      1.27314382
  C      2.33705795      6.29094222      0.72575642
  C      3.24805148      7.34374517      0.59371333
  C      2.82289583      8.58428421      0.14605074
  C      1.48814851      8.79277069     -0.17635439
  C      0.57386347      7.75691817     -0.04335684
  C      0.99594667      6.51681050      0.40860402
  H      1.15989657      9.76424271     -0.52662474
  H      4.29136683      7.18813193      0.84472124
  H      0.27793298      5.71132483      0.52188861
  H     -0.47056808      7.91400770     -0.28758466
  C      3.72833502      3.96524345     -0.17884048
  C      4.38861103      2.73419989     -0.06040064
  C      4.97142727      2.14082754     -1.16864466
  C      4.89641019      2.75315863     -2.41292955
  C      4.24344396      3.97014413     -2.54240077
  C      3.66506119      4.57353399     -1.43497098
  H      3.15851050      5.52440533     -1.54847557
  H      5.34497094      2.28011131     -3.27877650
  H      4.18112003      4.45505092     -3.50982816
  H      4.44350514      2.24487150      0.90608380
  H      3.53775497      9.39292001      0.04805274
  C      4.15770980      4.95467025      2.49506814
  C      3.75671260      5.26476358      3.79877542
  C      4.69736151      5.52929442      4.78054163
  C      6.05147061      5.48044208      4.47515335
  C      6.45960378      5.17097029      3.18534504
  C      5.52130968      4.90981981      2.19793125
  H      6.78809429      5.68397697      5.24329803
  H      7.51534723      5.13440473      2.94289954
  H      5.85055361      4.67126893      1.19318272
  H      5.48107715      1.19079844     -1.06216782
  H      4.37338251      5.77215282      5.78586537
  H      2.69840800      5.30437283      4.03648909
  P     -3.37103728      1.76571940      3.95178993
  C     -3.48190807      1.25058126      5.69182211
  C     -3.65612183      2.19028686      6.71131945
  C     -3.61019191      1.79974079      8.04062931
  C     -3.37883529      0.47172983      8.37269864
  C     -3.19381705     -0.46795479      7.36775213
  C     -3.23821032     -0.08155865      6.03771583
  H     -3.34225935      0.16969964      9.41264347
  H     -3.83510874      3.23053161      6.46342580
  H     -3.09820325     -0.81881468      5.25648850
  H     -3.01128745     -1.50713036      7.61727600
  C     -4.23395747      0.47702700      2.99621011
  C     -3.81525145      0.24604028      1.68390834
  C     -4.44536761     -0.69631084      0.88813348
  C     -5.50940366     -1.43073689      1.39398000
  C     -5.93786849     -1.21210142      2.69737368
  C     -5.30634791     -0.26816456      3.49486268
  H     -5.64268879     -0.11642263      4.51400669
  H     -6.00249946     -2.17082944      0.77444763
  H     -6.76993645     -1.78020314      3.09674668
  H     -2.98371995      0.81396068      1.28093192
  H     -3.75491840      2.53781770      8.82098751
  C     -4.48771142      3.20145167      3.86704061
  C     -3.91912101      4.47170592      3.99697564
  C     -4.71393355      5.60692657      3.99644539
  C     -6.09037903      5.48862616      3.85273768
  C     -6.66436909      4.23264333      3.70275825
  C     -5.87126870      3.09587604      3.71086519
  H     -6.71519369      6.37386745      3.86060645
  H     -7.73736548      4.13681701      3.58423402
  H     -6.33200538      2.12139488      3.59656834
  H     -4.10683306     -0.85302292     -0.13002123
  H     -4.25891213      6.58416604      4.10760571
  H     -2.84311463      4.56486414      4.10242833

