246
Energy =   -372.45914939 au
 Au      1.88314293      1.28050477     -0.68715441
 Au     -1.88731693      0.88144413      2.31429048
 Au     -1.59833372     -1.70194827     -2.90226668
 Au     -0.44537223      0.87421954     -2.11812714
 Au     -0.19975013     -0.05794584      0.56370500
 Au      1.06317981     -1.22401875     -1.63560155
 Au      0.30153674     -0.84838867     -4.39901921
 Au     -0.35761964     -1.20930145      2.89921383
  P      2.36303784     -3.12545720     -1.02377291
  C      3.81560516     -2.57416658     -0.07780287
  C      3.69896010     -2.34250745      1.29562548
  C      4.76082255     -1.82404007      2.01787311
  C      5.95156604     -1.50708704      1.37869075
  C      6.07188780     -1.70750916      0.01006183
  C      5.01086274     -2.23050066     -0.71406852
  H      6.78130220     -1.10082707      1.94507703
  H      2.76973750     -2.57528351      1.80473556
  H      5.11490298     -2.37899297     -1.78243661
  H      6.99797936     -1.46117395     -0.49660915
  C      2.99665620     -4.25058677     -2.30484585
  C      2.26444838     -4.35709048     -3.49024432
  C      2.67427042     -5.20988697     -4.50215627
  C      3.82692501     -5.96748441     -4.34445649
  C      4.56533473     -5.86822008     -3.17270965
  C      4.15611732     -5.01724822     -2.15726032
  H      4.74478982     -4.94375305     -1.25003204
  H      4.15230598     -6.63196998     -5.13607719
  H      5.46719361     -6.45600072     -3.04715289
  H      1.36758761     -3.75926140     -3.61909808
  H      4.65623437     -1.66741169      3.08545949
  C      1.52939218     -4.22040208      0.17457846
  C      0.24882863     -3.89548025      0.62208414
  C     -0.38846769     -4.67523113      1.57459930
  C      0.23944161     -5.80363351      2.08231259
  C      1.50844403     -6.14715340      1.63366507
  C      2.15059409     -5.36147842      0.68959747
  H     -0.26075709     -6.41725961      2.82229591
  H      2.00106058     -7.03068071      2.02243870
  H      3.14302711     -5.63595530      0.35116925
  H      2.09668914     -5.27857424     -5.41668200
  H     -1.38289780     -4.40807018      1.91233208
  H     -0.25583807     -3.02809982      0.21254158
  P     -3.31708224      2.46202590      3.28339263
  C     -4.46289758      1.80802439      4.53412959
  C     -3.96723101      0.80964327      5.37844008
  C     -4.76839952      0.25194523      6.36041286
  C     -6.08341590      0.67598953      6.50405344
  C     -6.59038030      1.65586947      5.66193611
  C     -5.78833507      2.22058258      4.68067625
  H     -6.71363167      0.23873508      7.26944791
  H     -2.94222018      0.47291944      5.26030153
  H     -6.19517320      2.98266722      4.02593631
  H     -7.61772509      1.98460941      5.76776281
  C     -4.35369963      3.37578266      2.10150135
  C     -4.59672616      2.77187932      0.86512144
  C     -5.39423597      3.39267253     -0.08246783
  C     -5.95564377      4.63278112      0.19010033
  C     -5.70937986      5.25031630      1.40918760
  C     -4.91255296      4.62978556      2.35945256
  H     -4.71704344      5.12744992      3.30217118
  H     -6.57853361      5.12108242     -0.55007703
  H     -6.13873191      6.22241398      1.62202237
  H     -4.15247108      1.80596949      0.64719253
  H     -4.36628706     -0.51616870      7.01154652
  C     -2.35554877      3.71144417      4.18892567
  C     -0.99788056      3.84037103      3.88312452
  C     -0.21166217      4.78176188      4.52804578
  C     -0.77166575      5.60332204      5.49715560
  C     -2.11380631      5.46885210      5.82694695
  C     -2.90220241      4.52797703      5.18194896
  H     -0.15959669      6.34070700      6.00309587
  H     -2.54974361      6.09850009      6.59385423
  H     -3.94436416      4.41763829      5.45982496
  H     -5.57226791      2.90896583     -1.03646825
  H      0.83908645      4.87076671      4.27458128
  H     -0.55439746      3.18372604      3.14139935
  P     -1.78746657      2.73037816     -2.81202531
  C     -3.44938185      2.39047662     -3.47742733
  C     -4.01386047      3.13706078     -4.51514994
  C     -5.29138206      2.85273369     -4.97247538
  C     -6.02373570      1.82222229     -4.40077073
  C     -5.47211469      1.07290019     -3.37040698
  C     -4.19336440      1.35150525     -2.91234045
  H     -7.02169568      1.59894895     -4.75903828
  H     -3.44808343      3.93910892     -4.97482656
  H     -3.76347382      0.75668286     -2.11193162
  H     -6.04100550      0.26339117     -2.92845634
  C     -0.95077964      3.59643170     -4.17369112
  C     -0.26953333      4.80151347     -3.99135529
  C      0.45114734      5.36572538     -5.03434069
  C      0.50401280      4.73542428     -6.26934705
  C     -0.16573122      3.53384086     -6.46100377
  C     -0.87795322      2.96214996     -5.41975551
  H     -1.38723908      2.01563725     -5.57006555
  H      1.06773702      5.17747771     -7.08232750
  H     -0.12987914      3.03693064     -7.42357647
  H     -0.30646880      5.30352968     -3.03109624
  H     -5.71477669      3.43906013     -5.77961288
  C     -2.08988902      4.04344833     -1.58215745
  C     -1.47350002      3.97292080     -0.33286058
  C     -1.66960505      4.97113161      0.60951912
  C     -2.49077882      6.05101285      0.31925905
  C     -3.11703691      6.12829374     -0.91788568
  C     -2.91987448      5.13362291     -1.86170139
  H     -2.64627882      6.82827638      1.05814901
  H     -3.76339614      6.96714931     -1.14816743
  H     -3.41533627      5.20197177     -2.82355777
  H      0.97333726      6.30264908     -4.87875641
  H     -1.17912508      4.90620335      1.57370102
  H     -0.83255630      3.12984580     -0.09777453
  P     -0.00151350     -2.43444218      4.88290372
  C     -0.89520549     -4.01241731      4.99483326
  C     -0.35687674     -5.17399341      5.55154564
  C     -1.09346221     -6.34996354      5.56374483
  C     -2.37217332     -6.38187925      5.02409000
  C     -2.91990872     -5.23020516      4.47296675
  C     -2.18509039     -4.05630156      4.45621551
  H     -2.94256329     -7.30313234      5.03299821
  H      0.64136631     -5.16036351      5.97334390
  H     -2.61059755     -3.15718323      4.02288456
  H     -3.91836973     -5.24769913      4.05127438
  C     -0.60138807     -1.47305063      6.30507250
  C     -0.53978131     -0.07814229      6.23530880
  C     -1.00240967      0.70526160      7.28091235
  C     -1.54758290      0.10372749      8.40767397
  C     -1.62063523     -1.28069391      8.48555324
  C     -1.14980193     -2.06631260      7.44441972
  H     -1.21177643     -3.14639253      7.51364373
  H     -1.91775767      0.71391380      9.22298891
  H     -2.04683310     -1.75304099      9.36296409
  H     -0.12706676      0.39426355      5.34997668
  H     -0.66493575     -7.24546709      5.99850421
  C      1.72759449     -2.83341074      5.27338954
  C      2.41949479     -3.67496507      4.39553445
  C      3.76399259     -3.94541183      4.59159347
  C      4.43954012     -3.37180406      5.66186672
  C      3.76286228     -2.53343549      6.53699596
  C      2.41587934     -2.26118970      6.34430825
  H      5.49186287     -3.58076406      5.81387593
  H      4.28365912     -2.09163059      7.37865976
  H      1.89572146     -1.60613693      7.03365655
  H     -0.94479027      1.78558396      7.21114757
  H      4.28582541     -4.60417063      3.90683672
  H      1.89384786     -4.12527528      3.55996712
  P      2.23762476     -0.06019547     -5.57638362
  C      3.09814741      1.30075856     -4.71575563
  C      4.48146313      1.48920636     -4.74348637
  C      5.05505038      2.57970295     -4.10546228
  C      4.26192167      3.49792843     -3.43220124
  C      2.88592365      3.31715654     -3.39081041
  C      2.31366966      2.22745348     -4.02747113
  H      4.71357522      4.35112623     -2.93962439
  H      5.11527190      0.78142216     -5.26479540
  H      1.23798606      2.09815127     -4.00714883
  H      2.25283479      4.03277303     -2.87898128
  C      1.94659055      0.63264375     -7.23267681
  C      0.73474599      0.35008895     -7.86702035
  C      0.45704396      0.87133311     -9.12177027
  C      1.38586925      1.68626526     -9.75489212
  C      2.59298611      1.97635016     -9.13156634
  C      2.87426136      1.45487192     -7.87920933
  H      3.81700470      1.68952180     -7.39740952
  H      1.16871075      2.09732738    -10.73372289
  H      3.31902820      2.61361147     -9.62316980
  H      0.00649922     -0.28108991     -7.36832255
  H      6.13019501      2.71353083     -4.13704118
  C      3.54737689     -1.29967284     -5.81128061
  C      4.24493013     -1.75492926     -4.68722276
  C      5.20968792     -2.74097859     -4.80969514
  C      5.47449787     -3.30603817     -6.05060993
  C      4.77157825     -2.87843994     -7.16790410
  C      3.81372228     -1.88206616     -7.05156264
  H      6.22583636     -4.08133959     -6.14339408
  H      4.97105204     -3.32019466     -8.13727353
  H      3.27353954     -1.54985724     -7.93070667
  H     -0.48622026      0.64220873     -9.60386306
  H      5.75283816     -3.07671484     -3.93336544
  H      4.02959458     -1.32551114     -3.71317265
  P     -3.36777627     -2.69191387     -1.59698395
  C     -4.15517633     -1.88992359     -0.15538294
  C     -5.32159481     -1.13603245     -0.30747546
  C     -5.89249381     -0.47896783      0.77135809
  C     -5.31323933     -0.57169844      2.02888200
  C     -4.14997163     -1.31253862      2.19502694
  C     -3.56786963     -1.95499338      1.11076478
  H     -5.76758704     -0.07484719      2.87766146
  H     -5.80110804     -1.08185515     -1.27750105
  H     -2.65998046     -2.52918758      1.25604427
  H     -3.70702191     -1.40913671      3.17940317
  C     -2.90757467     -4.34299034     -0.98508545
  C     -1.86158301     -5.00010023     -1.63852278
  C     -1.47366650     -6.27439084     -1.25759506
  C     -2.12275311     -6.91116469     -0.20851183
  C     -3.15879777     -6.26735968      0.45511003
  C     -3.55196338     -4.99376590      0.07113177
  H     -4.36080443     -4.50291033      0.60006482
  H     -1.81882675     -7.90603710      0.09494454
  H     -3.66651595     -6.75919467      1.27701041
  H     -1.34684832     -4.50043576     -2.45275139
  H     -6.80044827      0.09619888      0.63164262
  C     -4.78816037     -3.01718375     -2.68820872
  C     -4.89004373     -2.28913757     -3.87587132
  C     -5.95859151     -2.48433460     -4.73701971
  C     -6.93736553     -3.41755637     -4.42520383
  C     -6.84354964     -4.15302370     -3.25067966
  C     -5.77920520     -3.95524207     -2.38590298
  H     -7.77132716     -3.57551493     -5.09884121
  H     -7.60379847     -4.88598916     -3.00674832
  H     -5.71435764     -4.53598506     -1.47263329
  H     -0.65954618     -6.76805620     -1.77572250
  H     -6.02360555     -1.90952027     -5.65374960
  H     -4.12184808     -1.56380848     -4.12307469
  P      3.47112686      2.55918848      0.54490482
  C      2.85808730      4.20486536      1.01871039
  C      3.26385898      4.85269710      2.18900288
  C      2.74154190      6.09377085      2.51963420
  C      1.81252191      6.70595369      1.68809593
  C      1.40280550      6.07120113      0.52341399
  C      1.91671392      4.82640123      0.19573538
  H      1.40648566      7.67615870      1.94909991
  H      3.98689272      4.38064623      2.84458302
  H      1.58214053      4.32485058     -0.70632241
  H      0.67668821      6.54271557     -0.12882969
  C      5.11264154      2.81613138     -0.18775382
  C      5.71368178      1.71069179     -0.79898865
  C      6.95456559      1.82867098     -1.40255238
  C      7.60420468      3.05699759     -1.41863846
  C      7.00877801      4.16339881     -0.82829614
  C      5.76968803      4.04759919     -0.21509269
  H      5.31176188      4.91593821      0.24484099
  H      8.57256822      3.15161561     -1.89553424
  H      7.51120459      5.12359175     -0.84388819
  H      5.19925108      0.75466659     -0.79930084
  H      3.06532022      6.58745493      3.42857621
  C      3.81378954      1.77895305      2.15481634
  C      2.72937861      1.25637394      2.86435074
  C      2.91663325      0.63708112      4.08795194
  C      4.19348411      0.53116461      4.62472638
  C      5.27834898      1.04978690      3.93104199
  C      5.09283909      1.66697784      2.70222512
  H      4.34044685      0.04268077      5.58086228
  H      6.27612414      0.97217604      4.34694364
  H      5.94715591      2.06267897      2.16540062
  H      7.41247614      0.96284759     -1.86743217
  H      2.06517994      0.23142866      4.62300323
  H      1.73027952      1.33902217      2.44933928
