246
Energy =   -372.45570241 au
 Au      1.54549845     -2.29858830     -0.03866741
 Au     -1.74364071      1.44418396     -0.08416142
 Au     -1.01737531     -1.58386032     -0.35363367
 Au      0.74029971     -0.01580381      0.96678648
 Au     -1.55490133      0.56476779     -2.57682094
 Au      0.55394447      2.75627097      1.38495331
 Au      1.28642322      1.16439825      3.32085851
 Au      0.59889751      1.70851761     -1.44775056
  P      2.97814978      1.94169782     -1.56059110
  C      3.66117452      3.31894487     -2.53342240
  C      4.72522051      4.12233021     -2.11904939
  C      5.20757824      5.12463165     -2.94764566
  C      4.64792249      5.32830233     -4.20096899
  C      3.59861381      4.52521965     -4.62856889
  C      3.10464798      3.53218396     -3.79834108
  H      5.03078469      6.10996310     -4.84630989
  H      5.18276574      3.96533614     -1.14935292
  H      2.27936321      2.91030915     -4.13053388
  H      3.16257236      4.67400805     -5.60958740
  C      3.93210051      0.53107282     -2.21213467
  C      3.28791216     -0.59275530     -2.72718301
  C      4.02546094     -1.63806131     -3.26567338
  C      5.41140780     -1.58345866     -3.27761908
  C      6.06331489     -0.47348667     -2.75556158
  C      5.33037911      0.57978076     -2.23515579
  H      5.84436178      1.45045445     -1.84310479
  H      5.98236863     -2.40389992     -3.69598492
  H      7.14584717     -0.42449948     -2.76192579
  H      2.20441427     -0.64235946     -2.71907272
  H      6.03080844      5.74467434     -2.61222744
  C      3.65274366      2.12239043      0.11793141
  C      3.55977485      3.34461016      0.79155091
  C      3.96091534      3.45537271      2.11516646
  C      4.43958623      2.34311133      2.79502449
  C      4.52268512      1.12074697      2.14060528
  C      4.12846582      1.00943808      0.81604003
  H      4.75168794      2.42902213      3.82894525
  H      4.89665749      0.24817741      2.66231327
  H      4.19487217      0.04772368      0.31971534
  H      3.51461279     -2.49594749     -3.68492420
  H      3.89578560      4.41339855      2.61698553
  H      3.17830969      4.21711847      0.27343675
  P      2.56503645     -4.35203099     -0.61700351
  C      4.33414019     -4.59582511     -0.27629037
  C      4.89994718     -5.83622512      0.02753514
  C      6.26097176     -5.94152391      0.27098031
  C      7.07214635     -4.81612435      0.21501804
  C      6.51923707     -3.57735298     -0.08191666
  C      5.15871026     -3.46756390     -0.32152090
  H      8.13507520     -4.90357193      0.40675935
  H      4.27301305     -6.71888464      0.08217701
  H      4.72469915     -2.49903449     -0.54862873
  H      7.14647583     -2.69409624     -0.12274917
  C      2.36073909     -4.80754801     -2.36864559
  C      1.62962240     -3.95463677     -3.19877923
  C      1.43494281     -4.26265471     -4.53756690
  C      1.97869905     -5.42567419     -5.06614398
  C      2.71596224     -6.27650169     -4.25254313
  C      2.90708986     -5.97198255     -2.91394262
  H      3.48539158     -6.64138458     -2.28722570
  H      1.83072232     -5.66666310     -6.11225202
  H      3.14478547     -7.18301710     -4.66347317
  H      1.21099305     -3.04207007     -2.78758476
  H      6.68970566     -6.90859018      0.50671905
  C      1.71365203     -5.67450586      0.29025857
  C      1.98183165     -5.83714217      1.65358933
  C      1.25641824     -6.74264663      2.41057438
  C      0.24084023     -7.48686922      1.82269227
  C     -0.04771501     -7.31796731      0.47517648
  C      0.67946587     -6.41564394     -0.28595757
  H     -0.32378061     -8.19782747      2.41428903
  H     -0.84368987     -7.89056349      0.01299396
  H      0.44444177     -6.28943019     -1.33691341
  H      0.86338647     -3.59033320     -5.16761180
  H      1.48224844     -6.86682210      3.46347243
  H      2.76719525     -5.25117430      2.11973632
  P     -1.83253712     -0.04938832     -4.87523822
  C     -3.03727239     -1.27317806     -5.47542248
  C     -4.25061791     -0.88137143     -6.04688324
  C     -5.17997840     -1.83016657     -6.44594382
  C     -4.91223897     -3.18195846     -6.28133641
  C     -3.71542590     -3.58274197     -5.70251231
  C     -2.78991462     -2.63778319     -5.28762111
  H     -5.63493611     -3.92308162     -6.60149291
  H     -4.46535416      0.17165176     -6.18799749
  H     -1.86561851     -2.95922550     -4.81854300
  H     -3.50202792     -4.63698813     -5.56981206
  C     -0.24873990     -0.53047593     -5.63942286
  C      0.89692698      0.13535536     -5.19532363
  C      2.13647121     -0.12990727     -5.75323686
  C      2.25506285     -1.08046972     -6.75852679
  C      1.12588035     -1.74982977     -7.20907605
  C     -0.11906919     -1.47429638     -6.66030031
  H     -0.99255816     -1.99477325     -7.03488662
  H      3.22481664     -1.29506619     -7.19168989
  H      1.20989280     -2.48564511     -8.00044034
  H      0.80966304      0.87683361     -4.40736731
  H     -6.11387638     -1.51054018     -6.89340553
  C     -2.24102420      1.46099093     -5.80380365
  C     -2.68259087      2.59094693     -5.11392135
  C     -2.97962476      3.76306111     -5.79174939
  C     -2.83882793      3.82028265     -7.17109800
  C     -2.40123806      2.70215509     -7.86982084
  C     -2.10242887      1.53052377     -7.19403392
  H     -3.06876483      4.73625097     -7.70251648
  H     -2.29050786      2.74394411     -8.94713677
  H     -1.75640422      0.66286442     -7.74506756
  H      3.01142531      0.40408002     -5.40062307
  H     -3.31996497      4.63241156     -5.24088216
  H     -2.79336686      2.54727964     -4.03541081
  P      1.94011094     -0.14571449      5.20108184
  C      2.40975061      0.78651519      6.68429194
  C      2.51338443      0.20919917      7.95387983
  C      2.87891750      0.98269244      9.04442857
  C      3.14266741      2.33691898      8.88542235
  C      3.03823765      2.92130950      7.63037554
  C      2.67228081      2.15109278      6.53821039
  H      3.42567426      2.93804419      9.74147517
  H      2.29919658     -0.84531010      8.08646539
  H      2.58354200      2.60696991      5.55681709
  H      3.23813213      3.97900908      7.50204281
  C      3.37735070     -1.18461959      4.78683452
  C      3.38031220     -1.81310573      3.53693638
  C      4.44145180     -2.61403620      3.14760522
  C      5.52523724     -2.79046081      3.99757065
  C      5.54017230     -2.16120303      5.23448098
  C      4.47551226     -1.36382785      5.62853123
  H      4.50101176     -0.87671510      6.59647892
  H      6.35825874     -3.41265730      3.69172668
  H      6.38641457     -2.29034107      5.89915649
  H      2.54497236     -1.66405783      2.86019293
  H      2.95698709      0.52588305     10.02413561
  C      0.71040486     -1.35527976      5.79350957
  C     -0.32518564     -0.91753782      6.62527473
  C     -1.31803821     -1.79122315      7.03829304
  C     -1.29941451     -3.11542431      6.62070386
  C     -0.28545260     -3.55821251      5.78143075
  C      0.70954762     -2.68505567      5.36656662
  H     -2.07269345     -3.80036194      6.94814376
  H     -0.26336879     -4.59076466      5.45112236
  H      1.49658024     -3.04799927      4.71526538
  H      4.42511405     -3.09310628      2.17515109
  H     -2.10773337     -1.43739444      7.69089589
  H     -0.34373912      0.11272606      6.96368701
  P      0.24870061      5.09425968      0.75418837
  C     -1.42581156      5.76194101      1.05098216
  C     -1.70403468      6.83838503      1.89336630
  C     -3.00121793      7.31725207      2.01196922
  C     -4.03194323      6.73771802      1.28531747
  C     -3.76429347      5.67035669      0.43687955
  C     -2.47155501      5.18483765      0.32462116
  H     -5.04267925      7.11743039      1.37646092
  H     -0.90635505      7.30564494      2.45889226
  H     -2.26520270      4.34820379     -0.33691620
  H     -4.56336418      5.21450038     -0.13655067
  C      0.55900836      5.93350514     -0.84329021
  C      0.63932357      5.20098711     -2.02438818
  C      0.76067553      5.83569107     -3.25066921
  C      0.81845101      7.22014191     -3.31088757
  C      0.73475141      7.96519925     -2.14158743
  C      0.59201512      7.33094747     -0.91862875
  H      0.49399223      7.92305593     -0.01554462
  H      0.92007675      7.71869320     -4.26759800
  H      0.76821034      9.04768239     -2.18333732
  H      0.59623921      4.11680157     -1.98442364
  H     -3.20443683      8.15321737      2.67111070
  C      1.31640293      5.94174968      1.95415714
  C      1.06634102      5.70269930      3.31025226
  C      1.90887790      6.20481697      4.28745431
  C      3.02930133      6.94230794      3.92543754
  C      3.30093880      7.16840506      2.58322829
  C      2.45575989      6.66795690      1.60226156
  H      3.69249057      7.33323898      4.68795695
  H      4.17836122      7.73552953      2.29473814
  H      2.68943877      6.84289122      0.55829544
  H      0.80786668      5.24693646     -4.15934430
  H      1.69490871      6.01406842      5.33308224
  H      0.20294357      5.11138139      3.59551735
  P     -3.01229720     -2.83321620     -0.71800594
  C     -3.37211463     -3.85590714      0.74573236
  C     -4.65804279     -4.19816174      1.16676185
  C     -4.83702820     -5.06687380      2.23339205
  C     -3.73993423     -5.61503009      2.88434784
  C     -2.45605484     -5.28650804      2.46873668
  C     -2.27483654     -4.41196228      1.40969365
  H     -3.88466940     -6.30006410      3.71129560
  H     -5.52431368     -3.79022235      0.65914606
  H     -1.27051310     -4.15867784      1.08614778
  H     -1.59298533     -5.71244040      2.96790632
  C     -2.92987524     -4.16478836     -1.95956740
  C     -1.70189977     -4.49931447     -2.52813947
  C     -1.59161080     -5.58415860     -3.38580223
  C     -2.71012596     -6.35017588     -3.68296558
  C     -3.94014530     -6.02437474     -3.12353750
  C     -4.05141235     -4.94156725     -2.26671029
  H     -5.01246989     -4.69968241     -1.82660985
  H     -2.62371288     -7.20261694     -4.34624272
  H     -4.81546631     -6.62113029     -3.35187575
  H     -0.82716157     -3.90573932     -2.28836923
  H     -5.84082458     -5.32268348      2.55205068
  C     -4.52831789     -1.91964768     -1.11605843
  C     -5.25241794     -1.26221021     -0.11815531
  C     -6.34815934     -0.47885692     -0.44518048
  C     -6.71910979     -0.31479656     -1.77329512
  C     -5.99112266     -0.94251064     -2.77490574
  C     -4.90498508     -1.73911446     -2.44965667
  H     -7.57296928      0.30266361     -2.02620809
  H     -6.26902401     -0.81543770     -3.81514076
  H     -4.34465508     -2.23325357     -3.23481365
  H     -0.63062946     -5.83050747     -3.82234694
  H     -6.91183503      0.00954834      0.34127962
  H     -4.95886173     -1.36801343      0.91968718
  P     -3.09219789      1.58858627      1.92409962
  C     -4.72577187      2.31497953      1.60890414
  C     -5.57272206      2.76677549      2.62748109
  C     -6.80868326      3.31362257      2.32036349
  C     -7.21847878      3.42063776      0.99791117
  C     -6.38642607      2.97851155     -0.02168591
  C     -5.14997759      2.43002309      0.28335336
  H     -8.18429038      3.85144207      0.76199802
  H     -5.25831146      2.69921891      3.66273313
  H     -4.50026820      2.08524848     -0.51409453
  H     -6.69855067      3.06061237     -1.05637407
  C     -2.45727787      2.54636937      3.34845871
  C     -1.63234153      1.95933908      4.31339398
  C     -1.10313527      2.71533462      5.34875271
  C     -1.39405100      4.06881872      5.44799390
  C     -2.22048559      4.66120352      4.50270175
  C     -2.73945521      3.90971873      3.45909427
  H     -3.38310937      4.38573189      2.72964296
  H     -0.98723627      4.65582529      6.26275703
  H     -2.46559813      5.71447248      4.57452822
  H     -1.42542419      0.89644080      4.28006634
  H     -7.45449651      3.65980291      3.11884991
  C     -3.42317676     -0.01612520      2.72971018
  C     -2.35254860     -0.90000496      2.88431935
  C     -2.50799078     -2.09262501      3.56957317
  C     -3.74322807     -2.42849066      4.10562942
  C     -4.82314735     -1.57472063      3.93366954
  C     -4.66680080     -0.37585676      3.25305425
  H     -3.86442462     -3.35880329      4.64781448
  H     -5.79416535     -1.83788307      4.33663584
  H     -5.51806987      0.28424566      3.13546587
  H     -0.46862457      2.23952037      6.08747101
  H     -1.66114017     -2.75851301      3.68547697
  H     -1.38503071     -0.64866316      2.46520068
