#B3LYP/6-31+G(d) OPT FREQ

246, Energy =   -372.46272049 au

0 1
 Au     -0.42988691     -0.83798345     -2.16201298
 Au      1.18550249     -0.44013822      2.73021087
 Au     -1.25364692      3.42451822      0.13416031
 Au      0.76474852      1.72752825      0.60209764
 Au      0.50678669     -1.40480504      0.30940583
 Au     -1.62323072      0.75344823      0.15479618
 Au      2.87517488     -1.98489390      1.49680476
 Au     -0.73634178     -3.24072091     -1.21039863
  P     -2.66227054      5.32234726     -0.18819390
  C     -4.04601223      5.20304678      0.98697781
  C     -4.38155298      6.19326180      1.91098630
  C     -5.43288212      5.99987963      2.79623580
  C     -6.16953537      4.82409147      2.76321524
  C     -5.84755639      3.83365706      1.84402713
  C     -4.78611081      4.01607174      0.97358834
  H     -6.99399720      4.67885465      3.45117199
  H     -3.82318355      7.12174222      1.93952430
  H     -4.52629235      3.23483702      0.26689752
  H     -6.42067723      2.91434942      1.80857645
  C     -3.51282441      5.56507653     -1.78789081
  C     -2.73831081      5.61637214     -2.95011995
  C     -3.32456278      5.85256198     -4.18328207
  C     -4.69669546      6.04721304     -4.27559804
  C     -5.47583175      6.00239442     -3.12801671
  C     -4.89159018      5.75918667     -1.89338723
  H     -5.51523257      5.72381436     -1.00819733
  H     -5.15565761      6.23781955     -5.23840715
  H     -6.54584939      6.16326871     -3.19006731
  H     -1.66491113      5.48464439     -2.88735257
  H     -5.68023324      6.77637261      3.51068408
  C     -1.93930311      6.96841383      0.08294971
  C     -0.62948070      7.07609415      0.55073684
  C     -0.06013946      8.32047711      0.77406473
  C     -0.78904370      9.47358013      0.51980620
  C     -2.08835871      9.37929199      0.03819116
  C     -2.66172697      8.13737564     -0.18080256
  H     -0.34307155     10.44602994      0.69179210
  H     -2.65814162     10.27755570     -0.16911679
  H     -3.67355778      8.07082677     -0.56518345
  H     -2.70650157      5.89326094     -5.07282042
  H      0.95535223      8.39026641      1.14677310
  H     -0.05580585      6.17428270      0.73602096
  P     -3.83240706     -0.10912022     -0.14707167
  C     -4.18107787     -1.72300166     -0.91931531
  C     -4.06062034     -2.89515864     -0.16462249
  C     -4.39111164     -4.12229545     -0.71793562
  C     -4.80356047     -4.20508585     -2.04134883
  C     -4.86162464     -3.05649042     -2.81787141
  C     -4.55682688     -1.82419928     -2.26084004
  H     -5.07680639     -5.16422876     -2.46452116
  H     -3.73766178     -2.84092449      0.86928582
  H     -4.63237545     -0.93018742     -2.86915759
  H     -5.16446571     -3.11569819     -3.85685878
  C     -4.73379562      1.03413525     -1.24276876
  C     -4.01048548      1.75285473     -2.19700081
  C     -4.65596311      2.60061925     -3.08199763
  C     -6.03456753      2.74760567     -3.02192615
  C     -6.76347288      2.05240233     -2.06689602
  C     -6.12027142      1.19906391     -1.18435658
  H     -6.69853579      0.65678750     -0.44491754
  H     -6.53855869      3.40962974     -3.71598010
  H     -7.83914362      2.17186451     -2.01078739
  H     -2.93274240      1.63927663     -2.24724523
  H     -4.33657737     -5.01751053     -0.11027498
  C     -4.84704308     -0.10981047      1.36377860
  C     -4.51547897      0.80567577      2.36589817
  C     -5.27968555      0.90084663      3.51832032
  C     -6.37764626      0.06991606      3.69568541
  C     -6.71051174     -0.85153803      2.71259610
  C     -5.95624443     -0.93926488      1.55224330
  H     -6.97082519      0.14020442      4.59968788
  H     -7.56605903     -1.50334739      2.84562989
  H     -6.23007991     -1.66031471      0.79103639
  H     -4.08105643      3.14902773     -3.81900080
  H     -5.01657617      1.62227374      4.28314836
  H     -3.65052431      1.44842466      2.23760461
  P      3.14788015      2.06878655      0.75774896
  C      3.71316872      3.78789948      0.93070717
  C      4.97384742      4.11872409      1.43770536
  C      5.36799992      5.44482060      1.52314207
  C      4.51468402      6.45641117      1.10329618
  C      3.25724576      6.13909226      0.60834257
  C      2.85629104      4.81479507      0.53086527
  H      4.82745406      7.49191851      1.16678308
  H      5.64342117      3.33508905      1.77374016
  H      1.86935946      4.56762387      0.15458561
  H      2.58640819      6.92517562      0.28191153
  C      3.99128432      1.45598544     -0.73977765
  C      3.43529474      0.35682899     -1.39814930
  C      4.01605477     -0.15748135     -2.54623822
  C      5.15861430      0.43590470     -3.06934467
  C      5.71743042      1.53466343     -2.42992300
  C      5.14166228      2.04091926     -1.27377361
  H      5.58760188      2.90079391     -0.78747275
  H      5.60876553      0.04335775     -3.97336517
  H      6.60756617      2.00259182     -2.83392065
  H      2.53229280     -0.09771312     -1.00676016
  H      6.34733180      5.68881827      1.91799066
  C      4.03090205      1.23267447      2.11912462
  C      3.67228343      1.55701357      3.43229826
  C      4.26474891      0.91984127      4.51048342
  C      5.22515199     -0.05975124      4.29630509
  C      5.59405851     -0.38727881      3.00040494
  C      5.00029434      0.24819846      1.91698337
  H      5.68844110     -0.56103731      5.13773514
  H      6.35281394     -1.14104742      2.82599543
  H      5.31225448     -0.00577096      0.91109038
  H      3.57088748     -1.01458970     -3.03798068
  H      3.97449063      1.18867654      5.51941582
  H      2.93595535      2.33207951      3.60917439
  P     -0.04405199      0.74570481     -3.91220208
  C      0.83986225      2.28759172     -3.50958159
  C      2.20390322      2.44185220     -3.76515626
  C      2.87232879      3.59186783     -3.37302900
  C      2.19257668      4.60381298     -2.71158691
  C      0.83814216      4.45833009     -2.44101006
  C      0.16790300      3.31008067     -2.83376048
  H      2.71401964      5.50354334     -2.40725668
  H      2.74802770      1.65921570     -4.28059394
  H     -0.89259024      3.20873539     -2.63084344
  H      0.30186605      5.24551491     -1.92409308
  C     -1.51277268      1.27370438     -4.84666806
  C     -2.55579912      0.34970441     -4.95926780
  C     -3.68603392      0.64555774     -5.70350857
  C     -3.79289416      1.87454737     -6.34174883
  C     -2.76791101      2.80463478     -6.22747951
  C     -1.63305811      2.50935213     -5.48619139
  H     -0.83929752      3.24299748     -5.40489340
  H     -4.67523121      2.10859112     -6.92553771
  H     -2.84866121      3.76471621     -6.72400748
  H     -2.47313593     -0.60895232     -4.45682602
  H      3.93014635      3.69549857     -3.58546949
  C      1.00639847     -0.00049620     -5.19776389
  C      1.60906955     -1.23525653     -4.95264867
  C      2.43640308     -1.81910104     -5.89942586
  C      2.66592792     -1.17957400     -7.10918153
  C      2.06245631      0.04403543     -7.37013844
  C      1.23917519      0.63152350     -6.42337757
  H      3.31117722     -1.63563430     -7.85072570
  H      2.23450677      0.54351489     -8.31644125
  H      0.77108455      1.58660972     -6.63489380
  H     -4.48531896     -0.08205442     -5.78425363
  H      2.90078896     -2.77615609     -5.69064476
  H      1.42320324     -1.74160738     -4.01134891
  P     -0.96359162     -5.56657006     -0.76961467
  C      0.58815238     -6.48814439     -0.51138511
  C      1.14513546     -6.66875823      0.75570337
  C      2.34846383     -7.34032504      0.90322089
  C      3.02617302     -7.81785915     -0.20956731
  C      2.49062565     -7.62835861     -1.47608472
  C      1.28029833     -6.97103946     -1.62667090
  H      3.96926547     -8.33782724     -0.08886324
  H      0.63045595     -6.29760744      1.63464344
  H      0.86201590     -6.83772985     -2.61835232
  H      3.01418368     -7.99676211     -2.35070992
  C     -1.81999837     -6.57360630     -2.01279606
  C     -2.39314131     -5.92586695     -3.10901146
  C     -3.04578836     -6.64794887     -4.09634712
  C     -3.13099372     -8.03004974     -4.00114230
  C     -2.54966939     -8.68776860     -2.92480187
  C     -1.89194260     -7.96904428     -1.93925234
  H     -1.41842034     -8.49208022     -1.11610372
  H     -3.64236520     -8.59585788     -4.77091820
  H     -2.60378603     -9.76791198     -2.85495407
  H     -2.32061764     -4.84566012     -3.18489684
  H      2.75635837     -7.49249020      1.89568003
  C     -1.84039972     -5.78081762      0.81164278
  C     -1.52362451     -4.87968574      1.83365876
  C     -2.13777082     -4.96699405      3.07256178
  C     -3.09744213     -5.94401681      3.30288262
  C     -3.43409889     -6.83214003      2.29103382
  C     -2.80967933     -6.75538646      1.05429727
  H     -3.58420334     -6.00916516      4.26885865
  H     -4.18634615     -7.59303663      2.46366475
  H     -3.08166879     -7.45735239      0.27482498
  H     -3.48374751     -6.13058538     -4.94218086
  H     -1.86908948     -4.26882834      3.85731096
  H     -0.79023202     -4.10058715      1.65053115
  P      4.59680973     -3.38763837      0.60307468
  C      6.27576834     -2.70573481      0.43352833
  C      7.29533933     -2.99983425      1.34243442
  C      8.53469751     -2.38603655      1.23014035
  C      8.77026821     -1.46261261      0.22110060
  C      7.76112281     -1.15504955     -0.68192354
  C      6.52320633     -1.76796432     -0.57448234
  H      9.73873902     -0.98391400      0.13754786
  H      7.12355238     -3.72092465      2.13332372
  H      5.74056207     -1.52987265     -1.28617867
  H      7.93548886     -0.43456721     -1.47319378
  C      4.21162457     -3.93429465     -1.09410344
  C      2.87847662     -3.91888943     -1.50366429
  C      2.51912967     -4.30003267     -2.78570737
  C      3.49260071     -4.71987102     -3.68166852
  C      4.82413411     -4.74249016     -3.28821345
  C      5.18426400     -4.34822594     -2.00871236
  H      6.22957032     -4.35482414     -1.72256897
  H      3.21490981     -5.03173674     -4.68164098
  H      5.58943595     -5.06609927     -3.98407741
  H      2.11175612     -3.60391491     -0.80555035
  H      9.31909996     -2.63132984      1.93664250
  C      4.85527359     -4.92129752      1.54559374
  C      4.24599337     -5.04126438      2.79578053
  C      4.44363569     -6.17240595      3.57347391
  C      5.25278726     -7.20027188      3.10826226
  C      5.85983008     -7.09467934      1.86272026
  C      5.66409863     -5.96473787      1.08498685
  H      5.41076815     -8.08386869      3.71519795
  H      6.49215707     -7.89537982      1.49718426
  H      6.14244337     -5.89088966      0.11498101
  H      1.47568350     -4.27181708     -3.08043784
  H      3.96714059     -6.24982385      4.54379605
  H      3.61391065     -4.23721360      3.15867971
  P     -0.11043479      0.70243429      4.38483658
  C      0.70077875      0.89413227      5.99982839
  C      0.50993151      1.99583836      6.83697513
  C      1.18252993      2.07953548      8.04681781
  C      2.05059971      1.06918060      8.43643004
  C      2.24935075     -0.03003516      7.61072321
  C      1.58330084     -0.11459774      6.39878521
  H      2.57580932      1.13890617      9.38163990
  H     -0.16352519      2.79157623      6.54010496
  H      1.74598790     -0.96832125      5.74871142
  H      2.92791006     -0.82069719      7.90928389
  C     -1.59744028     -0.28562355      4.74289479
  C     -2.13987390     -1.05342387      3.70970135
  C     -3.26043690     -1.83938264      3.92371638
  C     -3.85651089     -1.87103582      5.17728292
  C     -3.32613015     -1.11414956      6.21312055
  C     -2.20352658     -0.32817865      6.00106300
  H     -1.79017907      0.25219642      6.81816113
  H     -4.73246735     -2.48644638      5.34541181
  H     -3.78751561     -1.13731171      7.19350350
  H     -1.67659020     -1.03161348      2.72855206
  H      1.02727222      2.93991794      8.68738405
  C     -0.76713673      2.36990796      4.04153479
  C      0.09965201      3.31663476      3.49097534
  C     -0.33062363      4.60716567      3.22686521
  C     -1.64487708      4.96729783      3.49503157
  C     -2.52048768      4.03231037      4.02883609
  C     -2.08537682      2.74470382      4.30514959
  H     -1.98199820      5.97692694      3.29306921
  H     -3.54731530      4.30874538      4.23974473
  H     -2.77116490      2.02870869      4.74213219
  H     -3.67221358     -2.42494959      3.10936200
  H      0.36663358      5.33277448      2.82548142
  H      1.12748556      3.04519209      3.28219784

