246
Energy =   -372.45129379 au
 Au     -1.34662214      0.28115757      1.13186128
 Au      0.75205829     -0.90705574     -0.45367047
 Au     -1.65355780      2.55874224      2.47101422
 Au      0.63481902      1.34880780      2.66707616
 Au     -1.46185059     -2.30697332      0.23238766
 Au     -1.87380923     -0.19279041     -1.44940048
 Au      2.02929051      1.41199601     -0.06637167
 Au      3.24595675     -0.65278309     -1.22627405
  P     -2.29220928      0.17319353     -3.74624427
  C     -2.82160873      1.83468411     -4.25374138
  C     -1.99698449      2.71378202     -4.95775492
  C     -2.42182814      4.00619810     -5.22821526
  C     -3.66800039      4.43845926     -4.79677916
  C     -4.49482511      3.57362780     -4.09004925
  C     -4.07311292      2.28346037     -3.81384987
  H     -3.99631507      5.44887559     -5.00997802
  H     -1.02137971      2.38552307     -5.29749636
  H     -4.71726596      1.61122838     -3.25590586
  H     -5.46866785      3.90631621     -3.74977051
  C     -3.53060277     -0.95340851     -4.44735925
  C     -3.64797989     -2.22421766     -3.87709848
  C     -4.59907609     -3.11997296     -4.33714471
  C     -5.44460700     -2.75991527     -5.37831010
  C     -5.33140236     -1.50378165     -5.95833916
  C     -4.38335335     -0.60302059     -5.49713107
  H     -4.30690183      0.37836486     -5.95084284
  H     -6.19221695     -3.45807556     -5.73580053
  H     -5.98727418     -1.22074671     -6.77339082
  H     -2.98438277     -2.50766231     -3.06651358
  H     -1.77419255      4.67843314     -5.77905143
  C     -0.76552800     -0.15637789     -4.67742540
  C      0.44344787      0.27055595     -4.12069676
  C      1.64520626      0.01341653     -4.75887761
  C      1.65806830     -0.67983590     -5.96172680
  C      0.46415604     -1.11322666     -6.52175220
  C     -0.74178905     -0.85465333     -5.88602455
  H      2.59826424     -0.88527227     -6.46003265
  H      0.47016601     -1.65516800     -7.46036850
  H     -1.66943364     -1.19599371     -6.33108500
  H     -4.68172730     -4.09882398     -3.87877449
  H      2.57434308      0.35078303     -4.31328865
  H      0.43689014      0.80801792     -3.17817379
  P      1.93295307      3.77429577      0.15489055
  C      0.34140794      4.40653842     -0.45105591
  C     -0.03921306      5.74786266     -0.33468201
  C     -1.26409218      6.17416320     -0.82330330
  C     -2.14228184      5.26790214     -1.40232953
  C     -1.78654184      3.93061491     -1.49992996
  C     -0.54963325      3.50861129     -1.04036042
  H     -3.10515651      5.60175784     -1.77115793
  H      0.62224613      6.45804674      0.14813318
  H     -0.26903307      2.46553838     -1.13657558
  H     -2.46873752      3.21386561     -1.94117896
  C      3.22934833      4.57125276     -0.84104446
  C      4.50042999      3.98992323     -0.79279764
  C      5.55864442      4.54259007     -1.49551612
  C      5.35619401      5.67224858     -2.27769283
  C      4.09168497      6.23932532     -2.35647983
  C      3.03369519      5.69626188     -1.64290311
  H      2.05225442      6.14941818     -1.71762018
  H      6.18140890      6.10512767     -2.83067242
  H      3.92607598      7.11326449     -2.97577531
  H      4.65525206      3.09216419     -0.20377122
  H     -1.53968196      7.21893166     -0.74029370
  C      2.09290499      4.55006122      1.79687241
  C      0.96042479      4.75831383      2.58966683
  C      1.07665357      5.23671430      3.88519891
  C      2.32974605      5.52262091      4.41013853
  C      3.46183504      5.33145413      3.62944663
  C      3.34701626      4.84326299      2.33660854
  H      2.42305059      5.89886775      5.42190046
  H      4.44223139      5.56458705      4.02844736
  H      4.24005370      4.69525142      1.74006528
  H      6.53980347      4.08523946     -1.43857083
  H      0.18418169      5.39277569      4.48044069
  H     -0.02549858      4.56760745      2.18069682
  P     -3.70140991     -2.75607232      1.30571280
  C     -4.14541697     -4.39361332      1.97950340
  C     -4.29159054     -4.67004715      3.33933368
  C     -4.60224413     -5.95495143      3.76142802
  C     -4.76933433     -6.97557866      2.83599135
  C     -4.62251421     -6.71137583      1.47985179
  C     -4.30797517     -5.43175864      1.05492937
  H     -5.01286834     -7.97716931      3.17004535
  H     -4.16657241     -3.88036716      4.07109943
  H     -4.18851249     -5.22719027     -0.00480001
  H     -4.74934250     -7.50519434      0.75283584
  C     -5.24568428     -2.29147393      0.44717852
  C     -5.17916083     -1.70730053     -0.81708895
  C     -6.33151712     -1.39065586     -1.51950412
  C     -7.57477935     -1.65222504     -0.95973016
  C     -7.65700826     -2.22975603      0.30152449
  C     -6.50439556     -2.55320092      0.99927956
  H     -6.57755876     -3.01859717      1.97586114
  H     -8.47824330     -1.41401814     -1.50845245
  H     -8.62594321     -2.43594188      0.74106779
  H     -4.20960214     -1.50248390     -1.25882090
  H     -4.71782402     -6.15673991      4.82005310
  C     -3.63255769     -1.66225681      2.76073010
  C     -2.52034486     -1.79997344      3.60131508
  C     -2.33018961     -0.94575672      4.67429390
  C     -3.24330217      0.07284175      4.91722249
  C     -4.33929361      0.23101536      4.08100077
  C     -4.53423665     -0.62722420      3.00792361
  H     -3.10028698      0.74014655      5.75869127
  H     -5.04972613      1.02918770      4.26394933
  H     -5.39089174     -0.48632442      2.35854665
  H     -6.25701206     -0.94780598     -2.50628204
  H     -1.46750388     -1.07095320      5.31864844
  H     -1.79960452     -2.58710292      3.40492023
  P     -0.40767708     -4.42518044     -0.38852652
  C     -0.97312927     -4.78008450     -2.07872995
  C     -0.42245100     -4.02237462     -3.11971449
  C     -0.86042098     -4.18731642     -4.42287178
  C     -1.86538215     -5.10382530     -4.70716660
  C     -2.44067457     -5.83766160     -3.67897785
  C     -2.00677682     -5.67079143     -2.37137610
  H     -2.20564122     -5.23716849     -5.72720508
  H      0.35855011     -3.30078952     -2.90118324
  H     -2.47088783     -6.24222544     -1.57558662
  H     -3.23140641     -6.54692301     -3.89428256
  C     -0.76257333     -5.90050337      0.61932163
  C     -1.12007622     -5.70360775      1.95494862
  C     -1.34238061     -6.78328342      2.79482505
  C     -1.21620467     -8.07655593      2.30700450
  C     -0.85443153     -8.28490035      0.98244994
  C     -0.61936874     -7.20697020      0.14353443
  H     -0.31936484     -7.38129303     -0.88354186
  H     -1.39637339     -8.92268832      2.95951176
  H     -0.74869303     -9.29366177      0.60056022
  H     -1.22889777     -4.69228143      2.33378057
  H     -0.42010696     -3.59524635     -5.21734311
  C      1.41058295     -4.54639224     -0.55471106
  C      2.22038236     -3.79563503      0.29774430
  C      3.60172533     -3.90501350      0.24215746
  C      4.19260285     -4.77708919     -0.66186375
  C      3.39768614     -5.52628439     -1.51845584
  C      2.01640539     -5.41481067     -1.46631366
  H      5.27083225     -4.87471169     -0.69827936
  H      3.85469392     -6.20386665     -2.23023669
  H      1.40670663     -6.00557947     -2.14006086
  H     -1.62102096     -6.61370274      3.82845807
  H      4.21503576     -3.31909383      0.91701806
  H      1.76296115     -3.13085660      1.02152229
  P     -3.56004948      3.97347263      2.64953808
  C     -4.92697041      3.04857203      1.88178858
  C     -6.15733806      2.80581198      2.49280748
  C     -7.10936508      2.01486968      1.86494775
  C     -6.84650942      1.45738112      0.62178793
  C     -5.62448271      1.69128078      0.00400875
  C     -4.67178455      2.47514267      0.63160186
  H     -7.59014235      0.83690683      0.13532111
  H     -6.37494499      3.23442612      3.46419500
  H     -3.71271723      2.64642950      0.15319138
  H     -5.40985205      1.25265865     -0.96429946
  C     -3.63944079      5.61961707      1.87155897
  C     -2.72519084      6.58299692      2.30934422
  C     -2.74077027      7.86173851      1.77702664
  C     -3.66287391      8.19304268      0.79108388
  C     -4.56415306      7.23901347      0.33911298
  C     -4.55416126      5.95852445      0.87367706
  H     -5.26647625      5.22273829      0.51858500
  H     -3.67915346      9.19469259      0.37806573
  H     -5.28518137      7.49295341     -0.42935290
  H     -2.00480041      6.32692849      3.07984285
  H     -8.06058079      1.83265399      2.35143963
  C     -4.09134867      4.32031011      4.35050062
  C     -3.40557127      3.70576569      5.39987892
  C     -3.77348015      3.93606544      6.71631260
  C     -4.83004901      4.79050697      7.00016379
  C     -5.51020472      5.42028983      5.96560193
  C     -5.14371323      5.19243064      4.64860310
  H     -5.11875611      4.97259673      8.02871209
  H     -6.32863846      6.09580399      6.18577510
  H     -5.66838651      5.69870197      3.84591239
  H     -2.03408360      8.60257206      2.13261315
  H     -3.23190919      3.45124911      7.52051875
  H     -2.57168603      3.04843696      5.17496898
  P      2.72541747      0.64485649      3.58382570
  C      2.84897910     -1.16983339      3.58821396
  C      4.05763422     -1.86996113      3.61922151
  C      4.06400391     -3.25673502      3.66260933
  C      2.86874375     -3.96346416      3.67975402
  C      1.66116238     -3.27810020      3.64268166
  C      1.65356981     -1.89322063      3.59319341
  H      2.87753757     -5.04643356      3.71593568
  H      4.99767105     -1.33048842      3.60755227
  H      0.70949405     -1.35971081      3.55903287
  H      0.72368743     -3.82283086      3.65232170
  C      2.84918312      1.10102624      5.33968438
  C      2.06899970      2.16231497      5.80394061
  C      2.13424156      2.55963826      7.13012645
  C      2.97621697      1.89568243      8.01147525
  C      3.75267123      0.83524087      7.56210099
  C      3.69269706      0.43872003      6.23579156
  H      4.30076110     -0.39131067      5.89370856
  H      3.02578281      2.20221657      9.04971353
  H      4.40893846      0.31332510      8.24879821
  H      1.40806826      2.67895543      5.11571888
  H      5.00865938     -3.78747909      3.69045452
  C      4.30544660      1.21709949      2.88132204
  C      4.78607297      0.66242822      1.69141858
  C      5.91673349      1.17574899      1.07476261
  C      6.59657734      2.24413334      1.64532131
  C      6.13663451      2.79620906      2.83305143
  C      4.99590464      2.29396770      3.44177070
  H      7.48332960      2.64182783      1.16617920
  H      6.66672049      3.62475668      3.28819988
  H      4.63966355      2.73980104      4.36335499
  H      1.52402993      3.38646602      7.47529900
  H      6.26995818      0.73869113      0.14762447
  H      4.27903197     -0.19073200      1.25569845
  P      5.15984742     -1.28506658     -2.47053631
  C      6.40340846     -2.38659461     -1.72529513
  C      7.12905978     -3.32474763     -2.46398657
  C      8.05763683     -4.14287869     -1.83815059
  C      8.27364338     -4.03852446     -0.47070997
  C      7.55453736     -3.11315846      0.27442492
  C      6.62403742     -2.29647269     -0.34824349
  H      8.99872784     -4.68076049      0.01512279
  H      6.96282785     -3.41900756     -3.53107445
  H      6.05504290     -1.58383267      0.23856944
  H      7.71434293     -3.02988232      1.34335296
  C      6.11802865      0.12587736     -3.10292695
  C      5.41677856      1.29508378     -3.41079323
  C      6.07684198      2.40381361     -3.91414886
  C      7.45328610      2.36743418     -4.09759188
  C      8.16297169      1.21825603     -3.77793956
  C      7.50237887      0.10247015     -3.28595375
  H      8.06522592     -0.79098739     -3.04105894
  H      7.97161031      3.23604487     -4.48639037
  H      9.23765970      1.18772924     -3.91484157
  H      4.34368778      1.33160337     -3.25129198
  H      8.61393342     -4.86657354     -2.42251475
  C      4.63292257     -2.17142604     -3.97037309
  C      3.50867349     -2.99476803     -3.86780268
  C      3.05211403     -3.71104088     -4.96177165
  C      3.70627531     -3.60265546     -6.18219949
  C      4.81545789     -2.77542580     -6.30091436
  C      5.27934139     -2.06465314     -5.20350124
  H      3.34916268     -4.15906313     -7.04076982
  H      5.32512277     -2.68466997     -7.25306672
  H      6.14376817     -1.41859426     -5.30664530
  H      5.51708327      3.29949738     -4.15805325
  H      2.18215127     -4.35070232     -4.86269643
  H      2.99011340     -3.07070013     -2.91792437
