246
Energy =   -372.45832016 au
 Au     -0.45880814      2.87207302      2.00355287
 Au     -1.36511647      0.55665210      0.96136128
 Au      2.12878081     -1.18617164      0.61856361
 Au     -2.19006617     -2.74880958     -1.92677526
 Au     -0.12992743     -1.39544026     -0.91486890
 Au      0.97875759      1.48980572      0.21981301
 Au      2.23101080     -0.42211420     -1.88940793
 Au     -2.37995534     -0.16957669     -1.84599236
  P     -2.76386575      2.07480021     -2.52449225
  C     -4.30910703      2.40608103     -3.41683172
  C     -4.78462549      3.69984222     -3.65094279
  C     -5.97919268      3.89250801     -4.32613420
  C     -6.71395445      2.80187975     -4.77301525
  C     -6.25215567      1.51310552     -4.54284401
  C     -5.05866793      1.31655114     -3.86636837
  H     -7.64901581      2.95698615     -5.29817223
  H     -4.21841433      4.55516459     -3.29934201
  H     -4.70054441      0.30971481     -3.67727163
  H     -6.82371754      0.65903376     -4.88726326
  C     -1.42768486      2.51485522     -3.67968694
  C     -0.11542561      2.41706426     -3.20657215
  C      0.96197374      2.68282461     -4.03363293
  C      0.74366423      3.03251747     -5.36057772
  C     -0.55262894      3.11167027     -5.84880847
  C     -1.63341907      2.85570606     -5.01649313
  H     -2.64194387      2.92402798     -5.40758659
  H      1.58381546      3.24142098     -6.01242403
  H     -0.72627692      3.37666120     -6.88527522
  H      0.05696167      2.12945242     -2.17389672
  H     -6.33949319      4.89931440     -4.50258384
  C     -2.67764709      3.40914375     -1.28613621
  C     -3.30200265      3.20095993     -0.05469852
  C     -3.27236992      4.17856734      0.92834652
  C     -2.61699469      5.38080593      0.69044579
  C     -1.99334095      5.59772537     -0.52952012
  C     -2.02102335      4.62013828     -1.51303699
  H     -2.59664314      6.14951811      1.45334445
  H     -1.48721751      6.53718351     -0.71901882
  H     -1.53297270      4.80119293     -2.46350555
  H      1.97127692      2.61319105     -3.64282957
  H     -3.76981477      4.00742541      1.87587798
  H     -3.82334423      2.26774590      0.12742623
  P     -0.45626765      4.41080548      3.80267247
  C     -1.82024130      5.58513472      4.05794059
  C     -3.09775732      5.07143473      4.30980345
  C     -4.18211412      5.92065516      4.45718139
  C     -4.00991358      7.29426751      4.34130891
  C     -2.75003254      7.81341559      4.07888388
  C     -1.66034928      6.96686838      3.93465129
  H     -4.85848138      7.95847294      4.45451680
  H     -3.23643035      3.99900724      4.39767920
  H     -0.67953996      7.38141993      3.73209619
  H     -2.61156812      8.88438817      3.98674220
  C      1.04626707      5.43237974      3.73813786
  C      1.51595584      5.82618449      2.48189877
  C      2.67855467      6.57067041      2.36508037
  C      3.39559894      6.92032468      3.50132953
  C      2.94069048      6.53108646      4.75389920
  C      1.77260648      5.79348889      4.87496657
  H      1.42442278      5.49258379      5.85647374
  H      4.31059277      7.49374329      3.40988828
  H      3.49898236      6.80134073      5.64274592
  H      0.96531040      5.53869783      1.59161456
  H     -5.16405117      5.50913579      4.66053581
  C     -0.32549672      3.51945223      5.38197831
  C      0.38359569      2.31527962      5.38723889
  C      0.51728556      1.57576213      6.55058950
  C     -0.06615864      2.02432080      7.72831400
  C     -0.77700021      3.21635227      7.73567537
  C     -0.90566608      3.96217155      6.57299008
  H      0.03190618      1.44366988      8.63793748
  H     -1.23379358      3.57070761      8.65238324
  H     -1.46177056      4.89222194      6.59063559
  H      3.03108661      6.87068443      1.38487260
  H      1.07228176      0.64458861      6.53692126
  H      0.82912634      1.95804580      4.46467619
  P      3.10405981      2.64329089     -0.07698042
  C      2.95508510      4.34494829     -0.71303443
  C      4.04525312      5.21926210     -0.76872707
  C      3.88955589      6.50636272     -1.25829694
  C      2.64661558      6.93933647     -1.70286121
  C      1.55769240      6.08150932     -1.64886595
  C      1.70920017      4.79618818     -1.15127522
  H      2.52780804      7.94474469     -2.08895587
  H      5.01955580      4.89243108     -0.42409276
  H      0.85275030      4.13269715     -1.10242406
  H      0.58658338      6.41413348     -1.99642011
  C      4.35996406      1.87547583     -1.15253035
  C      4.92934154      0.66343923     -0.74171424
  C      5.83239464     -0.00749124     -1.55171212
  C      6.18079491      0.52256614     -2.78733002
  C      5.61784033      1.71886813     -3.20836527
  C      4.70759146      2.38792159     -2.40348408
  H      4.27374678      3.32021419     -2.74620137
  H      6.88833956      0.00192625     -3.42168856
  H      5.88521437      2.13461123     -4.17293878
  H      4.67804671      0.26035667      0.23391610
  H      4.74307629      7.17308218     -1.29562007
  C      4.00071971      2.88099780      1.49370129
  C      3.26511877      2.92284158      2.67906242
  C      3.88025045      3.18487630      3.89184803
  C      5.24892254      3.41035978      3.93791603
  C      5.99838798      3.34540437      2.77074978
  C      5.38329128      3.07793005      1.55740998
  H      5.73205881      3.62765597      4.88310919
  H      7.06956999      3.50679523      2.80373411
  H      5.98191306      3.01852466      0.65580891
  H      6.27011746     -0.93938095     -1.21313267
  H      3.28917885      3.21698686      4.80020504
  H      2.19463923      2.75291128      2.64680479
  P      2.59850708     -1.00045072     -4.20708484
  C      2.76932970     -2.78827998     -3.90120583
  C      1.95563790     -3.76227010     -4.47943310
  C      2.07573112     -5.09202010     -4.10146100
  C      3.00584415     -5.46941423     -3.14342297
  C      3.82274650     -4.50919281     -2.56067672
  C      3.69890107     -3.18045726     -2.93084382
  H      3.09185790     -6.50870404     -2.84875287
  H      1.21843921     -3.48394838     -5.22397089
  H      4.32584557     -2.43002473     -2.46070291
  H      4.55318341     -4.79463606     -1.81228627
  C      4.00476784     -0.57325195     -5.28462316
  C      3.98171929      0.66691644     -5.93219836
  C      5.04936268      1.07180572     -6.71707211
  C      6.16089059      0.25015532     -6.85659653
  C      6.19720820     -0.97790949     -6.21117463
  C      5.12856193     -1.38888861     -5.42792526
  H      5.16689738     -2.35262395     -4.93361467
  H      6.99688758      0.56751408     -7.46843010
  H      7.06070607     -1.62393597     -6.31916574
  H      3.11646339      1.31235355     -5.82320971
  H      1.43601416     -5.83843145     -4.55800900
  C      1.15469711     -0.89190812     -5.31183574
  C     -0.08602776     -0.57640765     -4.75866166
  C     -1.22567450     -0.52399320     -5.54413823
  C     -1.13822749     -0.77422011     -6.90663192
  C      0.09327955     -1.07710242     -7.47397009
  C      1.23233911     -1.13827686     -6.68579302
  H     -2.02574464     -0.72664388     -7.52644881
  H      0.16740639     -1.26704732     -8.53837128
  H      2.18798763     -1.37665716     -7.13832562
  H      5.01373875      2.03093790     -7.22054139
  H     -2.17942177     -0.27661360     -5.09081326
  H     -0.15503759     -0.36101373     -3.69874116
  P      2.69852824     -2.01893490      2.77583224
  C      3.81686320     -1.02078768      3.81032344
  C      3.55117622     -0.66954484      5.13425382
  C      4.46963345      0.07597224      5.85888155
  C      5.66492150      0.47140127      5.27572495
  C      5.93643867      0.13255507      3.95593165
  C      5.01638751     -0.60105470      3.22667011
  H      6.38532376      1.04405973      5.84779229
  H      2.62752678     -0.98556066      5.60506850
  H      5.22933966     -0.86366519      2.19526553
  H      6.86574016      0.44460308      3.49350321
  C      3.53343572     -3.63104957      2.72061287
  C      3.64046242     -4.29486324      1.49715872
  C      4.28195309     -5.52102262      1.41319322
  C      4.82532360     -6.09898179      2.55220188
  C      4.73130977     -5.44458832      3.77387197
  C      4.09374684     -4.21743156      3.86042696
  H      4.03450421     -3.70462225      4.81414027
  H      5.32835279     -7.05655129      2.48698419
  H      5.16147535     -5.89026192      4.66312243
  H      3.22177396     -3.83914533      0.60572426
  H      4.25181381      0.34063065      6.88724080
  C      1.22782070     -2.27212747      3.81376770
  C      0.42495102     -1.15506981      4.06846297
  C     -0.72703084     -1.27160983      4.82776061
  C     -1.11734561     -2.51284970      5.31347866
  C     -0.34451120     -3.63263273      5.04218504
  C      0.82332703     -3.51514476      4.30135345
  H     -2.02541851     -2.60491484      5.89767222
  H     -0.64797321     -4.60523231      5.41159739
  H      1.42361931     -4.39580926      4.10430960
  H      4.36351844     -6.02290600      0.45570911
  H     -1.32265201     -0.39110251      5.03784525
  H      0.71471016     -0.18841280      3.66872853
  P     -2.36394182     -5.04509919     -2.49746136
  C     -1.29761536     -6.05398570     -1.42082482
  C     -1.70091438     -7.24908439     -0.82458700
  C     -0.84511139     -7.93007370      0.03018775
  C      0.41951778     -7.42665908      0.30129940
  C      0.83072963     -6.23754153     -0.28828706
  C     -0.02177724     -5.55563132     -1.13994515
  H      1.08458694     -7.95748786      0.97239069
  H     -2.68853282     -7.64719661     -1.02695592
  H      0.30067131     -4.62411005     -1.59460870
  H      1.81689611     -5.83861472     -0.08039045
  C     -1.70516439     -5.37355739     -4.15911067
  C     -1.65050479     -4.31574811     -5.06923756
  C     -1.14343768     -4.50600212     -6.34534135
  C     -0.68298395     -5.75855961     -6.72867847
  C     -0.72589395     -6.81725764     -5.83011803
  C     -1.23000001     -6.62833618     -4.55178352
  H     -1.24645416     -7.45520626     -3.85058116
  H     -0.28627219     -5.90915023     -7.72575518
  H     -0.36457635     -7.79534733     -6.12565697
  H     -2.00414162     -3.33426087     -4.76933319
  H     -1.16932173     -8.85852281      0.48569972
  C     -3.99219127     -5.84861122     -2.42960966
  C     -4.84677717     -5.45503329     -1.39465169
  C     -6.11184734     -6.00564022     -1.27546638
  C     -6.54630552     -6.94873578     -2.19818591
  C     -5.71195366     -7.33578213     -3.23771301
  C     -4.44244791     -6.79031025     -3.35680398
  H     -7.53774129     -7.37711338     -2.10977068
  H     -6.05101235     -8.06624118     -3.96312168
  H     -3.80120117     -7.09571756     -4.17562707
  H     -1.10747427     -3.67432951     -7.04006856
  H     -6.76175297     -5.69387625     -0.46572466
  H     -4.50975241     -4.70969755     -0.68055610
  P     -3.29463975     -0.64062095      1.76018304
  C     -4.79052245     -0.43545109      0.74679058
  C     -5.04812092     -1.26729179     -0.34698955
  C     -6.08421099     -0.98537504     -1.22468029
  C     -6.87713324      0.13673969     -1.02765226
  C     -6.64061048      0.96518405      0.06127569
  C     -5.60511311      0.68504001      0.93984647
  H     -7.68079065      0.36198808     -1.71868784
  H     -4.44898788     -2.15758851     -0.50016974
  H     -5.43219272      1.33302026      1.79236469
  H     -7.26329176      1.83670841      0.22662826
  C     -3.84144632     -0.17295238      3.43720154
  C     -3.22214786      0.90823904      4.06843035
  C     -3.58498164      1.28495690      5.35296467
  C     -4.58034021      0.58882740      6.02378299
  C     -5.21118173     -0.48172156      5.40376462
  C     -4.84556714     -0.86225211      4.12249163
  H     -5.34481976     -1.70134725      3.65265146
  H     -4.86398120      0.87975234      7.02828143
  H     -5.99175038     -1.02634713      5.92208413
  H     -2.44620586      1.45872243      3.54682886
  H     -6.27080860     -1.64690621     -2.06278714
  C     -3.03141675     -2.44268517      1.82879744
  C     -4.06547911     -3.38150406      1.88708091
  C     -3.78076668     -4.73861003      1.93039074
  C     -2.46498099     -5.18158740      1.90350844
  C     -1.42935129     -4.26032957      1.83758249
  C     -1.71344113     -2.90461123      1.80671448
  H     -2.24749010     -6.24297767      1.92843052
  H     -0.39854658     -4.59527195      1.81045637
  H     -0.90124955     -2.18737398      1.77188915
  H     -3.08365472      2.11813458      5.83257805
  H     -4.59279347     -5.45441060      1.98468792
  H     -5.09855277     -3.05403497      1.89161680
