246
Energy =   -372.44076254 au
 Au      2.81392229     -2.71797451     -1.44795853
 Au     -2.42437788      0.53648074      1.47418745
 Au      2.44287497      0.09919593     -0.78537243
 Au     -0.07087688      0.83998277      0.12308313
 Au     -0.18747571      0.30962442      2.82296009
 Au      0.66673277     -1.62162271      0.76903192
 Au      0.35220610     -3.16261880     -1.74098674
 Au      0.57777185      1.23467932     -2.39465224
  P     -4.79635781      0.75407421      1.60536144
  C     -5.35355846      2.40492685      2.13608633
  C     -5.59477180      3.40338288      1.18752353
  C     -5.92136381      4.69033918      1.58520629
  C     -6.00401792      5.00416448      2.93474183
  C     -5.75733578      4.02303864      3.88631826
  C     -5.42898749      2.73471310      3.49206796
  H     -6.26078462      6.01008732      3.24473907
  H     -5.53429142      3.16722117      0.13132407
  H     -5.23767373      1.97798125      4.24476727
  H     -5.82556635      4.25922103      4.94199043
  C     -5.48146106     -0.32396478      2.90218739
  C     -6.76915246     -0.86168350      2.86665907
  C     -7.22882803     -1.65004122      3.91152951
  C     -6.41460374     -1.90627903      5.00649581
  C     -5.13139599     -1.37835942      5.05154511
  C     -4.66574260     -0.59997093      4.00374739
  H     -3.65740376     -0.19929731      4.03425025
  H     -6.77890291     -2.51822067      5.82309162
  H     -4.49137292     -1.57258659      5.90474800
  H     -7.41501745     -0.66892449      2.01795536
  H     -6.11137012      5.45023773      0.83572209
  C     -5.75703084      0.40966142      0.10224085
  C     -5.13470707     -0.30268824     -0.92518358
  C     -5.81882161     -0.60145615     -2.09344437
  C     -7.13373028     -0.18615884     -2.25362144
  C     -7.76027807      0.53127726     -1.24337655
  C     -7.07968088      0.82918296     -0.07307789
  H     -7.66804169     -0.41817869     -3.16740797
  H     -8.78495961      0.86189659     -1.36706635
  H     -7.57373721      1.39990308      0.70482188
  H     -8.23022296     -2.06225578      3.87090989
  H     -5.32515396     -1.15923508     -2.88055937
  H     -4.10423537     -0.62182995     -0.80550354
  P     -0.72449799      3.22858343     -0.07204581
  C     -2.31695206      3.58768356     -0.87481235
  C     -2.91775101      4.85067700     -0.84130515
  C     -4.10312934      5.07928724     -1.52299171
  C     -4.71453554      4.05160034     -2.23141989
  C     -4.14199304      2.78658996     -2.24707422
  C     -2.95115753      2.56010323     -1.57456419
  H     -5.64071721      4.23444533     -2.76313167
  H     -2.45927398      5.65208212     -0.27336338
  H     -2.50342304      1.57268404     -1.58400073
  H     -4.62275027      1.97539483     -2.78168317
  C      0.49810078      4.23851103     -0.97797819
  C      1.85185270      3.98024459     -0.73552455
  C      2.83837745      4.68287598     -1.40792368
  C      2.49115235      5.63831257     -2.35350465
  C      1.15253807      5.89609094     -2.61063477
  C      0.16252608      5.20821267     -1.92421799
  H     -0.87727827      5.43522017     -2.12627060
  H      3.26295411      6.17669429     -2.89054227
  H      0.87335883      6.63946839     -3.34819654
  H      2.13094263      3.21816058     -0.01609954
  H     -4.55382745      6.06454551     -1.49979090
  C     -0.85012871      4.05048902      1.55102572
  C     -2.05138832      3.96672609      2.26085990
  C     -2.14941184      4.47456182      3.54564638
  C     -1.04493364      5.06292092      4.14825258
  C      0.15453210      5.14418551      3.45538274
  C      0.25540546      4.63932215      2.16796551
  H     -1.11975241      5.45397136      5.15596259
  H      1.02123040      5.60078811      3.91915430
  H      1.20004390      4.71007444      1.64091011
  H      3.88175817      4.47965567     -1.19725164
  H     -3.09246011      4.41003102      4.07642572
  H     -2.91698951      3.50790578      1.79628026
  P      0.56353667      1.70251926     -4.70960949
  C      1.89845566      2.83731179     -5.19202010
  C      1.84266749      3.64289288     -6.33223112
  C      2.90516553      4.47380337     -6.65332896
  C      4.03310483      4.51341839     -5.84459963
  C      4.09356021      3.72559895     -4.70274604
  C      3.03087321      2.89868143     -4.37699198
  H      4.86233626      5.16227490     -6.10055801
  H      0.96230989      3.62471664     -6.96460587
  H      3.07463500      2.29110547     -3.47920971
  H      4.96879452      3.75424026     -4.06346064
  C     -0.92972146      2.44054230     -5.44309102
  C     -1.53443115      1.98446092     -6.61566955
  C     -2.69437790      2.58545130     -7.08334169
  C     -3.26588693      3.64215864     -6.38793482
  C     -2.67466760      4.10054757     -5.21763995
  C     -1.51845698      3.50099274     -4.74730647
  H     -1.06067082      3.85030560     -3.82784327
  H     -4.17294730      4.10698110     -6.75581691
  H     -3.11855351      4.92172860     -4.66636530
  H     -1.10130192      1.15551684     -7.16330081
  H      2.85138592      5.09401716     -7.54047381
  C      0.87121260      0.18944463     -5.66886403
  C      0.63129139     -1.03971059     -5.05174145
  C      0.84749095     -2.22861361     -5.72878447
  C      1.31196513     -2.20632507     -7.03636588
  C      1.56220420     -0.99080818     -7.66032478
  C      1.34674014      0.20058237     -6.98353217
  H      1.48432549     -3.13472156     -7.56788603
  H      1.92973744     -0.96926540     -8.67959664
  H      1.55759836      1.14399585     -7.47431854
  H     -3.15227612      2.22559208     -7.99740745
  H      0.65572656     -3.17272559     -5.23095058
  H      0.27032127     -1.06160939     -4.02884485
  P     -1.93367094     -3.57205232     -2.10684756
  C     -3.14527109     -3.43619297     -0.75119755
  C     -4.51048202     -3.63351081     -0.98362200
  C     -5.41732234     -3.56774847      0.06187677
  C     -4.97707851     -3.29808429      1.35077206
  C     -3.62896940     -3.07107600      1.58838840
  C     -2.72033553     -3.14242308      0.54341563
  H     -5.68659400     -3.26162235      2.16858915
  H     -4.86074974     -3.84198816     -1.98847349
  H     -1.66595152     -2.97340153      0.73487383
  H     -3.28179546     -2.84968532      2.59113232
  C     -2.21811214     -5.21759925     -2.81547437
  C     -1.56577095     -5.52246520     -4.01571400
  C     -1.66386015     -6.78701863     -4.57149252
  C     -2.40064452     -7.77356956     -3.92849206
  C     -3.03493416     -7.48928464     -2.72756422
  C     -2.94235585     -6.22198595     -2.16989144
  H     -3.43992321     -6.01483290     -1.22955336
  H     -2.47504139     -8.76424834     -4.36096063
  H     -3.60556404     -8.25711132     -2.21810435
  H     -0.97800651     -4.75744621     -4.51313558
  H     -6.47160641     -3.73041767     -0.12932654
  C     -2.61276296     -2.40952386     -3.33436152
  C     -2.30770971     -1.05695449     -3.15973172
  C     -2.77018904     -0.10693549     -4.05472642
  C     -3.54291845     -0.49329964     -5.14215670
  C     -3.85298935     -1.83333382     -5.32521000
  C     -3.39295210     -2.78672826     -4.42759589
  H     -3.89623443      0.25143068     -5.84588590
  H     -4.45490485     -2.14100471     -6.17229122
  H     -3.63835273     -3.83087128     -4.58252689
  H     -1.15979968     -7.00525218     -5.50581034
  H     -2.51762805      0.93652528     -3.91114500
  H     -1.69968162     -0.75152356     -2.31359201
  P      4.78771159     -0.15540666     -1.26699400
  C      5.93124206      0.88090937     -0.30235318
  C      6.75074137      0.37416838      0.70720907
  C      7.53445998      1.22757429      1.46962060
  C      7.51157352      2.59540708      1.23732916
  C      6.69472133      3.11276323      0.23976686
  C      5.90195577      2.26396690     -0.51654480
  H      8.12816467      3.25876082      1.83215524
  H      6.78447288     -0.69278272      0.89541789
  H      5.25979996      2.67125738     -1.29063537
  H      6.67177695      4.18003325      0.05174683
  C      5.15664558      0.22095841     -3.00750657
  C      4.24898130     -0.22340644     -3.97421211
  C      4.48681394     -0.00424309     -5.32108375
  C      5.62480835      0.68156009     -5.72388909
  C      6.52865614      1.13566727     -4.77385311
  C      6.30261098      0.90206683     -3.42551214
  H      7.02449960      1.24805493     -2.69516341
  H      5.80574516      0.86083460     -6.77708858
  H      7.42066256      1.66828512     -5.08231742
  H      3.35199493     -0.74990814     -3.66338138
  H      8.16911123      0.81889491      2.24746994
  C      5.43270311     -1.84953103     -1.07437927
  C      5.16106652     -2.52653070      0.12333115
  C      5.66837491     -3.79843998      0.34829831
  C      6.42046817     -4.42864084     -0.63297520
  C      6.67223355     -3.77859152     -1.83372846
  C      6.19265968     -2.49640639     -2.05233428
  H      6.81115510     -5.42466010     -0.46148737
  H      7.25648323     -4.26866817     -2.60387560
  H      6.41355632     -1.99378176     -2.98628682
  H      3.77977095     -0.36361251     -6.05934034
  H      5.48250776     -4.29137186      1.29567685
  H      4.57897529     -2.03226827      0.89114505
  P      1.14664949      0.83596928      4.72496941
  C      2.17448378     -0.38612030      5.60308396
  C      3.46672680     -0.11104532      6.05600593
  C      4.18672610     -1.07773656      6.74244505
  C      3.63196979     -2.32851782      6.97787637
  C      2.35094133     -2.61413787      6.52431899
  C      1.62753326     -1.64937851      5.84227487
  H      4.19942143     -3.08193524      7.51130986
  H      3.91028682      0.86054648      5.87055691
  H      0.62695251     -1.87483554      5.48903867
  H      1.91477173     -3.59091209      6.69977416
  C      0.21456763      1.64087023      6.06235631
  C     -1.08003166      2.08750095      5.78914411
  C     -1.83704432      2.70778713      6.77017245
  C     -1.31015312      2.88718138      8.04203766
  C     -0.02759586      2.43904367      8.32905435
  C      0.73066727      1.81660936      7.34975547
  H      1.72569134      1.45701177      7.58685049
  H     -1.90139560      3.36976464      8.81130079
  H      0.38401246      2.57105221      9.32289594
  H     -1.49467174      1.94484255      4.79633446
  H      5.18698053     -0.85209105      7.09361297
  C      2.33351618      2.09393686      4.15472151
  C      2.90338848      1.90251681      2.89288733
  C      3.77212846      2.83737993      2.35670767
  C      4.08689982      3.98392054      3.07467668
  C      3.52994485      4.18542465      4.32989653
  C      2.65672502      3.24973261      4.86693650
  H      4.76392404      4.71823410      2.65396881
  H      3.77398479      5.07708332      4.89561875
  H      2.21906946      3.42357310      5.84324384
  H     -2.84152827      3.04626613      6.54204872
  H      4.20423655      2.67100193      1.37663195
  H      2.65686043      1.01121349      2.32490236
  P      1.11260312     -3.63010069      2.00078059
  C      1.21181664     -5.10836240      0.95133127
  C      2.42380943     -5.54477719      0.41058146
  C      2.45518036     -6.58560326     -0.50540812
  C      1.27624292     -7.19754889     -0.90677477
  C      0.06341346     -6.76411156     -0.38760692
  C      0.02819487     -5.72342473      0.52709576
  H      1.30049575     -8.00880997     -1.62457020
  H      3.34990219     -5.07216785      0.71411718
  H     -0.92430337     -5.39009686      0.92499205
  H     -0.86181216     -7.23534120     -0.69902577
  C     -0.06892784     -4.10585602      3.30612257
  C     -0.89838587     -3.12917751      3.85881907
  C     -1.78315650     -3.44079367      4.87971248
  C     -1.85591728     -4.74129906      5.35919645
  C     -1.04094346     -5.72414724      4.81373326
  C     -0.15256340     -5.41197493      3.79659268
  H      0.47664234     -6.18861718      3.37722184
  H     -2.54798219     -4.98843500      6.15547914
  H     -1.09573883     -6.74152310      5.18314976
  H     -0.85255810     -2.11306357      3.48047780
  H      3.40580944     -6.91466734     -0.90882755
  C      2.70687540     -3.54976363      2.87601916
  C      3.32920413     -2.30627788      3.00286156
  C      4.55716790     -2.18739384      3.63568693
  C      5.17771321     -3.31379829      4.15775376
  C      4.56041903     -4.55406816      4.05455287
  C      3.33347340     -4.67422297      3.42044335
  H      6.13927420     -3.22496567      4.64922552
  H      5.03838628     -5.43397682      4.46892394
  H      2.86197465     -5.64722819      3.34330932
  H     -2.41459035     -2.66637160      5.29964368
  H      5.02684172     -1.21417086      3.72108612
  H      2.84217605     -1.42430393      2.60024487
