246
Energy =   -372.46402631 au
 Au      1.43252157      0.48209185     -1.72112317
 Au     -0.41880689      0.30273582      0.10194752
 Au      0.32112801      0.57366529      2.78664026
 Au     -2.32197061      0.33062866      2.12265676
 Au      1.60994511      2.41029046      0.72832309
 Au     -0.65508205     -1.82951860      1.97986881
 Au      2.66147941      0.09878484      0.99584308
 Au     -1.23915690      0.39194680     -2.38916571
  P      3.07169457      0.14101702     -3.39400687
  C      2.95145934      1.27403831     -4.81482957
  C      4.00088343      1.46900131     -5.71658943
  C      3.82988104      2.27985926     -6.82778014
  C      2.60860928      2.89659675     -7.06266463
  C      1.55753190      2.70726764     -6.17581949
  C      1.72988561      1.90617237     -5.05671793
  H      2.47509412      3.52468907     -7.93550432
  H      4.95645035      0.98548872     -5.54847884
  H      0.90954308      1.76858505     -4.35959002
  H      0.60071277      3.18297949     -6.35675391
  C      2.82928700     -1.46700464     -4.21931543
  C      1.61392500     -2.13394317     -4.06536324
  C      1.37117399     -3.32876043     -4.72569486
  C      2.34524544     -3.88018644     -5.54575451
  C      3.55885603     -3.22486521     -5.71007115
  C      3.79822561     -2.02544153     -5.05913849
  H      4.74533531     -1.51829287     -5.20436726
  H      2.15723277     -4.81547055     -6.05963316
  H      4.32175046     -3.64785363     -6.35322355
  H      0.84981386     -1.71196183     -3.42182846
  H      4.65394230      2.42556586     -7.51646978
  C      4.82480927      0.15104576     -2.92120311
  C      5.51926476      1.36203781     -2.84041017
  C      6.84170693      1.38800402     -2.42677282
  C      7.48589316      0.20922024     -2.07503531
  C      6.79442225     -0.99447795     -2.11584814
  C      5.47078899     -1.02398363     -2.52690655
  H      8.52476330      0.22864526     -1.76742539
  H      7.28719880     -1.91592187     -1.82731811
  H      4.93818567     -1.96826452     -2.55055938
  H      0.41760593     -3.82875052     -4.60016144
  H      7.37312280      2.33163856     -2.38367036
  H      5.02197329      2.28643925     -3.11378095
  P     -4.55189350      0.75285556      1.41551573
  C     -5.38788682     -0.79905831      0.96633049
  C     -6.70045015     -1.11121562      1.32109423
  C     -7.25936567     -2.32087575      0.93402383
  C     -6.51872744     -3.22991418      0.19161249
  C     -5.20756459     -2.93169404     -0.16065253
  C     -4.64608478     -1.72782139      0.23037669
  H     -6.95815583     -4.17406497     -0.10757793
  H     -7.28564939     -0.40708294      1.90121276
  H     -3.61891294     -1.49873881     -0.03477382
  H     -4.61816457     -3.64187635     -0.72946242
  C     -4.56674363      1.66896666     -0.15684930
  C     -3.45680766      2.44791920     -0.48469364
  C     -3.42973831      3.19042843     -1.65444149
  C     -4.51232235      3.15603305     -2.52255419
  C     -5.61657128      2.37254202     -2.21543513
  C     -5.64594564      1.63056952     -1.04440281
  H     -6.50718649      1.01047990     -0.82241953
  H     -4.49313456      3.73516458     -3.43834825
  H     -6.46035597      2.33483470     -2.89466485
  H     -2.61110516      2.48090088      0.19159767
  H     -8.27994557     -2.55350489      1.21479344
  C     -5.69726970      1.63557540      2.51376119
  C     -5.59966753      1.36675378      3.88311954
  C     -6.41505658      2.02387246      4.78993758
  C     -7.33034453      2.96773861      4.34266638
  C     -7.42774145      3.25011954      2.98700622
  C     -6.61657147      2.59126228      2.07503381
  H     -7.96443570      3.48668005      5.05172463
  H     -8.13807654      3.98905320      2.63481927
  H     -6.69773416      2.82244173      1.01917144
  H     -2.56589556      3.80667823     -1.87443372
  H     -6.33132024      1.80388784      5.84792913
  H     -4.87564540      0.63754327      4.23343352
  P      3.65111899     -2.04447964      1.40707554
  C      5.43186557     -1.92676477      1.75488530
  C      6.11869670     -2.74533822      2.65418491
  C      7.47332265     -2.55554949      2.88254968
  C      8.16092267     -1.54754788      2.22077666
  C      7.48640589     -0.72084397      1.33161830
  C      6.13196266     -0.90549089      1.10590427
  H      9.21896230     -1.40101701      2.40269557
  H      5.59387865     -3.53194705      3.18370991
  H      5.60299360     -0.25002629      0.42212738
  H      8.01419623      0.07426138      0.81774228
  C      3.52696502     -3.19098098     -0.00386474
  C      2.26511052     -3.35795267     -0.58132730
  C      2.08769201     -4.21447125     -1.65511949
  C      3.17516955     -4.89776148     -2.18540530
  C      4.43590712     -4.72384909     -1.63350409
  C      4.61268482     -3.87942925     -0.54591921
  H      5.59977461     -3.75475008     -0.11578548
  H      3.03759178     -5.55830533     -3.03343374
  H      5.28777577     -5.25103073     -2.04703332
  H      1.41620989     -2.81145538     -0.18033102
  H      7.99318756     -3.19836737      3.58337137
  C      2.99380985     -3.05194664      2.77720283
  C      2.25178436     -2.42877787      3.78138861
  C      1.76237799     -3.15243085      4.85783368
  C      2.02384823     -4.51160088      4.95486116
  C      2.76548788     -5.14273967      3.96588471
  C      3.23566289     -4.42483046      2.87709529
  H      1.65024020     -5.07843078      5.79941111
  H      2.97404944     -6.20363581      4.03813909
  H      3.79060813     -4.93379374      2.09699440
  H      1.10203973     -4.34130451     -2.08679708
  H      1.18571796     -2.65086986      5.62621358
  H      2.07068979     -1.36096413      3.72442040
  P      0.59222589      4.57713414      0.63320328
  C     -1.16298389      4.68268276      1.12140878
  C     -1.56606515      3.91437852      2.21689447
  C     -2.87530314      3.94930619      2.66988857
  C     -3.80895372      4.74952973      2.02320107
  C     -3.42522987      5.50737644      0.92608476
  C     -2.11234168      5.47710148      0.47643506
  H     -4.83488914      4.77637351      2.37160862
  H     -0.83651279      3.29008456      2.72164360
  H     -1.82608653      6.07636698     -0.38026524
  H     -4.15185653      6.12811693      0.41471757
  C      0.67382487      5.38038152     -0.99826311
  C      0.86823042      4.57488153     -2.12215075
  C      0.98155205      5.13708303     -3.38354792
  C      0.89084624      6.51351571     -3.54138948
  C      0.69386042      7.32501257     -2.43205742
  C      0.59322839      6.76571254     -1.16777398
  H      0.46440667      7.40836327     -0.30403823
  H      0.98486284      6.95370384     -4.52718420
  H      0.62887640      8.40038276     -2.55020610
  H      0.94315333      3.49833207     -2.00209611
  H     -3.16682954      3.35355958      3.52772224
  C      1.38891294      5.78167860      1.74045808
  C      2.77195381      5.67810177      1.91320984
  C      3.45043273      6.56660576      2.73117404
  C      2.75459919      7.57124901      3.39121053
  C      1.37945147      7.67839721      3.23378989
  C      0.69745133      6.78912793      2.41683145
  H      3.28396009      8.26898184      4.02923534
  H      0.83250892      8.45886121      3.75008095
  H     -0.37739611      6.87696738      2.30719919
  H      1.15473313      4.50047643     -4.24333546
  H      4.52334524      6.47491706      2.85435339
  H      3.31585200      4.89489318      1.39524748
  P     -2.37345208      0.37725765     -4.48489849
  C     -4.16089267      0.05820961     -4.34346996
  C     -5.12051942      0.60204171     -5.19910675
  C     -6.46443095      0.30633519     -5.02598160
  C     -6.86947840     -0.53799413     -4.00070706
  C     -5.92496125     -1.07838317     -3.13854494
  C     -4.58288128     -0.77597503     -3.30415209
  H     -7.91977298     -0.77042694     -3.87004288
  H     -4.81935454      1.26438708     -6.00250179
  H     -3.84922387     -1.18476415     -2.61674152
  H     -6.23342558     -1.73429329     -2.33241333
  C     -1.79602899     -0.89874050     -5.64958557
  C     -0.56714858     -0.71094188     -6.29070019
  C     -0.05525118     -1.68379383     -7.13318585
  C     -0.75428099     -2.86687443     -7.33637878
  C     -1.96781737     -3.07019946     -6.69381342
  C     -2.48657061     -2.09491513     -5.85443950
  H     -3.44038289     -2.25971126     -5.36610509
  H     -0.35315451     -3.62825398     -7.99485277
  H     -2.51944482     -3.98978821     -6.85217299
  H     -0.01263647      0.20799858     -6.13251150
  H     -7.19853103      0.73606247     -5.69791060
  C     -2.22782004      1.90913787     -5.45299403
  C     -1.82881459      3.07332758     -4.79367437
  C     -1.73585993      4.27798018     -5.47402062
  C     -2.02606916      4.33099975     -6.83102694
  C     -2.39852802      3.17460502     -7.50406942
  C     -2.49924794      1.97104440     -6.82344624
  H     -1.95437941      5.27122276     -7.36498128
  H     -2.61300018      3.20994399     -8.56583946
  H     -2.77765069      1.07123008     -7.36015870
  H      0.89479878     -1.51999381     -7.62882284
  H     -1.43389858      5.17414192     -4.94380613
  H     -1.58042934      3.02703368     -3.73899485
  P     -1.24782213     -4.09144721      1.48233373
  C     -2.93754553     -4.36077898      2.11069892
  C     -3.69312341     -5.48326676      1.75673141
  C     -4.98028626     -5.64606071      2.24259332
  C     -5.53605439     -4.69339758      3.08713374
  C     -4.79674963     -3.57599983      3.44734048
  C     -3.50839734     -3.41455884      2.96289118
  H     -6.54419878     -4.82228755      3.46275454
  H     -3.27177821     -6.23338050      1.09747337
  H     -2.93373441     -2.54050486      3.25009388
  H     -5.22277220     -2.82650441      4.10440781
  C     -0.34559494     -5.57358783      2.03065022
  C      0.74239029     -6.04823879      1.29102290
  C      1.43093860     -7.17915562      1.69969237
  C      1.05817845     -7.83985779      2.86350266
  C      0.00194016     -7.35577705      3.62391831
  C     -0.69421660     -6.22896452      3.21452831
  H     -1.52346699     -5.86340780      3.80972955
  H      1.59138574     -8.72921889      3.17763394
  H     -0.28692306     -7.86171132      4.53777396
  H      1.04403738     -5.53546690      0.38459734
  H     -5.55342754     -6.52123219      1.95958082
  C     -1.43281703     -4.34232805     -0.31521791
  C     -1.53314551     -3.21615337     -1.13321247
  C     -1.70939783     -3.33845809     -2.50144853
  C     -1.79198693     -4.59694908     -3.08051394
  C     -1.68567055     -5.72765285     -2.28146835
  C     -1.50607113     -5.60480169     -0.91196117
  H     -1.93791888     -4.69492623     -4.15000962
  H     -1.74234253     -6.71406758     -2.72679461
  H     -1.41444940     -6.49864025     -0.30612232
  H      2.26066093     -7.54550939      1.10613707
  H     -1.77883758     -2.44745974     -3.11505344
  H     -1.46415569     -2.22962719     -0.69125501
  P      1.51281186      1.44896507      4.71040515
  C      3.30816886      1.34962113      4.45279484
  C      3.91070133      2.23314409      3.54985058
  C      5.25353199      2.11386536      3.22980395
  C      6.01456293      1.09990152      3.79599950
  C      5.42380158      0.20154180      4.67335756
  C      4.08077073      0.32081166      4.99742898
  H      7.06467296      1.00544120      3.54651082
  H      3.32107893      3.02489901      3.10032343
  H      3.63187823     -0.38847247      5.68329060
  H      6.01063068     -0.60035143      5.10648873
  C      1.20379916      0.56160383      6.26941213
  C      0.17316829     -0.37772988      6.32734308
  C     -0.10903030     -1.04498614      7.51051899
  C      0.63660684     -0.77922246      8.65044665
  C      1.65825219      0.16090340      8.60681560
  C      1.93918871      0.83216884      7.42781221
  H      2.73059418      1.57313509      7.40299928
  H      0.41843006     -1.30073940      9.57490694
  H      2.23675102      0.37558831      9.49775353
  H     -0.41435622     -0.58047913      5.43789627
  H      5.70497795      2.81327769      2.53558905
  C      1.17363006      3.17421277      5.19172925
  C     -0.17254719      3.54261355      5.28499970
  C     -0.52993987      4.83233094      5.64199586
  C      0.45424536      5.77343033      5.91425335
  C      1.79239322      5.41429409      5.83872898
  C      2.15397711      4.12393227      5.48091672
  H      0.17768834      6.78438127      6.18929342
  H      2.56372458      6.14325211      6.05857934
  H      3.20325095      3.85751476      5.43415038
  H     -0.91402092     -1.77029990      7.54072149
  H     -1.57755296      5.10291197      5.70690155
  H     -0.94274106      2.80387903      5.08629178
