#B3LYP/6-31+G(d) OPT FREQ

246, Energy =   -372.46051834 au

0 1
 Au      0.77330872      1.28955887      3.46073227
 Au      1.70770281      0.67126948     -3.19336106
 Au      2.39169959      0.32757388      1.67858775
 Au     -2.26924717     -0.57675426     -0.25942948
 Au     -2.21134353     -1.86110858      2.04511069
 Au     -0.26613663     -0.16652725      1.43555960
 Au      0.45844624     -0.91378586     -1.47583127
 Au      0.99135959      1.55966124     -0.74625369
  P      4.46791555     -0.27042280      0.62892838
  C      5.48011632      1.20488459      0.28557648
  C      6.82860885      1.31938964      0.62513344
  C      7.51822941      2.49619378      0.37299608
  C      6.87291929      3.57699385     -0.21171466
  C      5.52909963      3.47821422     -0.54901992
  C      4.84151296      2.30080168     -0.30259963
  H      7.41231840      4.49830922     -0.39690497
  H      7.34284565      0.48765359      1.09244575
  H      3.78973872      2.22569062     -0.56055274
  H      5.01328475      4.32223226     -0.99291987
  C      4.47772863     -1.16788393     -0.96074488
  C      4.26965691     -2.55045142     -0.96458017
  C      4.25310066     -3.25909247     -2.15507260
  C      4.42945463     -2.59989361     -3.36386797
  C      4.62047803     -1.22577867     -3.37362441
  C      4.63976822     -0.51370529     -2.18300999
  H      4.82030819      0.55384701     -2.20641607
  H      4.42352579     -3.15576172     -4.29398157
  H      4.77838727     -0.70210597     -4.30927235
  H      4.14314024     -3.07904517     -0.02633003
  H      8.56571290      2.57022323      0.64116303
  C      5.49730419     -1.32778872      1.68660716
  C      5.15432312     -1.45280385      3.03467820
  C      5.90258681     -2.25160286      3.88490522
  C      7.00516351     -2.93967624      3.39764853
  C      7.35631156     -2.82578808      2.05883212
  C      6.61005712     -2.02749794      1.20666743
  H      7.58976271     -3.56697211      4.06019765
  H      8.21585102     -3.36288743      1.67494394
  H      6.88575039     -1.95185514      0.16086346
  H      4.10842748     -4.33299791     -2.13700888
  H      5.62250849     -2.33866082      4.92839010
  H      4.29089283     -0.91704623      3.41529148
  P      0.07905505     -3.29438993     -1.55323718
  C      0.70602211     -4.06709295     -0.03108425
  C      0.40418926     -5.37779202      0.35042725
  C      0.91929363     -5.90006331      1.52658745
  C      1.72551213     -5.12405668      2.34849379
  C      2.02569437     -3.81846878      1.98571286
  C      1.52159393     -3.30098530      0.80366882
  H      2.11499824     -5.53598791      3.27207247
  H     -0.24320510     -5.98769690     -0.26913968
  H      1.75891226     -2.28232917      0.51958834
  H      2.65152771     -3.20086279      2.62039528
  C      1.02898952     -4.03892831     -2.91708206
  C      1.10207038     -3.31849312     -4.11221977
  C      1.75874186     -3.84114557     -5.21457231
  C      2.36711892     -5.08676317     -5.13341805
  C      2.31328032     -5.80516013     -3.94635907
  C      1.64587012     -5.28921959     -2.84513478
  H      1.60708696     -5.86184677     -1.92569187
  H      2.88338432     -5.49623679     -5.99355330
  H      2.78968985     -6.77609106     -3.87716783
  H      0.63668197     -2.34042286     -4.17640286
  H      0.68181998     -6.91937258      1.80772449
  C     -1.55676975     -4.07846950     -1.76655846
  C     -2.43458409     -4.16077939     -0.68242456
  C     -3.70148542     -4.69922961     -0.83463159
  C     -4.11622645     -5.16773186     -2.07403656
  C     -3.25578802     -5.09154427     -3.15964511
  C     -1.98785165     -4.54867936     -3.00937542
  H     -5.10782750     -5.58830071     -2.19147408
  H     -3.56918974     -5.45933865     -4.12973795
  H     -1.32395656     -4.50038473     -3.86466967
  H      1.79447645     -3.27323029     -6.13702104
  H     -4.36945238     -4.75230585      0.01735132
  H     -2.11466641     -3.81552576      0.29493697
  P      2.57713722      1.61328217     -5.18786313
  C      1.84788138      3.26055395     -5.44584970
  C      2.38875640      4.17866172     -6.35136177
  C      1.79717535      5.41944148     -6.52914395
  C      0.65950936      5.76232857     -5.80954916
  C      0.11858590      4.86266702     -4.90171393
  C      0.71286963      3.62409752     -4.71854108
  H      0.19896329      6.73273283     -5.95231946
  H      3.27809275      3.91885272     -6.91472753
  H      0.29967928      2.93148483     -3.99343934
  H     -0.76281108      5.12700767     -4.32814653
  C      2.25476181      0.72445682     -6.74310265
  C      2.77793577     -0.56573437     -6.88349010
  C      2.52963099     -1.30861061     -8.02623993
  C      1.73472107     -0.78408045     -9.03785678
  C      1.19847472      0.48875311     -8.90345164
  C      1.45693953      1.24070615     -7.76636660
  H      1.03961469      2.23707357     -7.67914238
  H      1.53562670     -1.36715554     -9.92911909
  H      0.57813206      0.90362574     -9.68939582
  H      3.38896105     -0.98525919     -6.09164432
  H      2.22605151      6.12250051     -7.23359629
  C      4.36881152      1.93822539     -5.22034764
  C      4.95626514      2.44070849     -4.05540204
  C      6.31287414      2.71506662     -4.00569387
  C      7.10762078      2.48490493     -5.12098334
  C      6.53715768      1.98341229     -6.28228851
  C      5.17786899      1.71134089     -6.33565172
  H      8.17001111      2.69465403     -5.08325779
  H      7.15260474      1.80186993     -7.15572930
  H      4.74604636      1.31932756     -7.24899567
  H      2.95891009     -2.29857513     -8.12939664
  H      6.74873065      3.10408314     -3.09228856
  H      4.33972618      2.61567906     -3.18100312
  P     -3.55818380     -0.26957366     -2.23051032
  C     -4.41532308      1.32910443     -2.38372265
  C     -4.66279884      1.96557917     -3.60154961
  C     -5.41095858      3.13238134     -3.64054761
  C     -5.93799077      3.66575593     -2.47221246
  C     -5.70186366      3.03637570     -1.25650069
  C     -4.93588683      1.88285108     -1.21109588
  H     -6.53589329      4.56868719     -2.50839106
  H     -4.27470432      1.54642910     -4.52280835
  H     -4.74318226      1.39757100     -0.25926510
  H     -6.11639204      3.44468541     -0.34198971
  C     -4.97173898     -1.40906024     -2.35791854
  C     -5.40165033     -2.06611872     -1.20445196
  C     -6.51703815     -2.88921187     -1.23193351
  C     -7.21430502     -3.07134265     -2.41788483
  C     -6.80019851     -2.41698823     -3.57125204
  C     -5.69368756     -1.58349369     -3.54277675
  H     -5.38992973     -1.06114757     -4.44315917
  H     -8.08307343     -3.71846234     -2.44318091
  H     -7.34745157     -2.55077392     -4.49713734
  H     -4.85245448     -1.93046082     -0.27877901
  H     -5.59369628      3.62014726     -4.59101234
  C     -2.62023291     -0.47041556     -3.77270684
  C     -1.78489226      0.56461669     -4.20603849
  C     -0.98943129      0.40145543     -5.32910763
  C     -0.98881374     -0.80411622     -6.01912282
  C     -1.79392048     -1.84633119     -5.58239976
  C     -2.60385759     -1.68047589     -4.46864587
  H     -0.36555135     -0.92736267     -6.89686073
  H     -1.79802803     -2.79045638     -6.11476855
  H     -3.23223901     -2.49903974     -4.13803265
  H     -6.83876584     -3.39006527     -0.32564631
  H     -0.37649629      1.22417353     -5.67694522
  H     -1.76943545      1.50615442     -3.66744788
  P     -0.65312357      2.11887145      5.18066252
  C     -0.17435655      1.68196419      6.87796864
  C     -0.83174804      2.19054338      8.00265582
  C     -0.42672901      1.82160914      9.27570960
  C      0.64321189      0.95240225      9.44487419
  C      1.31466354      0.45541243      8.33604320
  C      0.90808951      0.81859855      7.06074459
  H      0.95957073      0.66942480     10.44190937
  H     -1.65551696      2.88476701      7.87851973
  H      1.43647267      0.43736334      6.19266524
  H      2.15895959     -0.21224596      8.46333485
  C     -2.28758165      1.34897093      4.92218851
  C     -2.79593433      1.35638174      3.61963356
  C     -4.02540372      0.78531308      3.33123753
  C     -4.77041016      0.19545980      4.34523178
  C     -4.27417319      0.17645371      5.64035838
  C     -3.04093010      0.74371390      5.92801755
  H     -2.66335562      0.71063709      6.94338518
  H     -5.73476344     -0.24732550      4.12548878
  H     -4.84859543     -0.28605071      6.43458564
  H     -2.22274502      1.82106446      2.82463414
  H     -0.94550680      2.21915397     10.14027574
  C     -1.06031557      3.89052472      5.32203188
  C     -0.00200202      4.80344911      5.32588579
  C     -0.24551976      6.16066576      5.46211945
  C     -1.54809255      6.62723618      5.57864613
  C     -2.60649761      5.72984001      5.56806958
  C     -2.36705176      4.36882792      5.44454025
  H     -1.73700132      7.68934595      5.68048728
  H     -3.62512932      6.08770023      5.66314714
  H     -3.19979199      3.67522205      5.45099385
  H     -4.40630472      0.81193542      2.31620259
  H      0.58414912      6.85778787      5.47900389
  H      1.01718499      4.44362701      5.22693025
  P      0.90092472      3.82390849      0.02891532
  C     -0.82581115      4.26708591      0.37112995
  C     -1.33851859      4.23790037      1.66990784
  C     -2.67836163      4.50544375      1.90403153
  C     -3.52632052      4.79732508      0.84507731
  C     -3.03305751      4.80315872     -0.45302304
  C     -1.69640025      4.52811610     -0.69100660
  H     -4.57046054      5.01931607      1.03146900
  H     -0.68101142      4.01690320      2.50417525
  H     -1.31909467      4.52689128     -1.70826785
  H     -3.69262770      5.02277262     -1.28452582
  C      1.43123441      5.02369263     -1.23759491
  C      2.42741038      4.63140521     -2.13261661
  C      2.95081221      5.52419856     -3.05428010
  C      2.46740393      6.82385152     -3.10769574
  C      1.45903402      7.22104956     -2.23940980
  C      0.94745201      6.33298167     -1.30593958
  H      0.16439626      6.65906969     -0.63112438
  H      2.87027657      7.52406623     -3.82981769
  H      1.07132516      8.23213287     -2.28448360
  H      2.78475792      3.60842350     -2.10846415
  H     -3.05802187      4.49480746      2.91938103
  C      1.80392412      4.45003978      1.49118726
  C      2.84983251      3.70896077      2.03966904
  C      3.57769259      4.18654286      3.11889356
  C      3.28236315      5.43166965      3.65430826
  C      2.25649934      6.19094003      3.10519643
  C      1.51720740      5.70428211      2.03934693
  H      3.85388771      5.81454643      4.49136316
  H      2.03176489      7.17178587      3.50755823
  H      0.71459743      6.30569787      1.62826974
  H      3.72827970      5.20037869     -3.73704970
  H      4.38167975      3.58813995      3.53136835
  H      3.11052429      2.75080296      1.60715219
  P     -3.05943445     -3.43048785      3.59192083
  C     -4.85139054     -3.67742998      3.44357065
  C     -5.52487706     -4.74463653      4.04675157
  C     -6.89770089     -4.87519032      3.90545866
  C     -7.61665309     -3.94803454      3.16267658
  C     -6.95783008     -2.88916594      2.55213771
  C     -5.58473264     -2.75901732      2.68933496
  H     -8.68983437     -4.05321694      3.05585846
  H     -4.96988224     -5.47950777      4.61878865
  H     -5.06632549     -1.93858582      2.20402786
  H     -7.51322238     -2.16294658      1.96974804
  C     -2.76212561     -2.89893150      5.30614242
  C     -1.51626801     -2.33075106      5.58957455
  C     -1.20006312     -1.93123185      6.87785551
  C     -2.13188405     -2.07071641      7.89806651
  C     -3.37891212     -2.61541183      7.62351715
  C     -3.69281029     -3.03120634      6.33757500
  H     -4.66868238     -3.45785257      6.13669459
  H     -1.88589365     -1.75181346      8.90422848
  H     -4.11156199     -2.72230751      8.41499216
  H     -0.79398959     -2.19921516      4.79000892
  H     -7.40863916     -5.70600442      4.37805317
  C     -2.38748479     -5.12436727      3.55832475
  C     -2.85309618     -6.01901947      2.58968034
  C     -2.34118924     -7.30370168      2.50970167
  C     -1.35068574     -7.71456787      3.39281594
  C     -0.86927220     -6.82930046      4.34829029
  C     -1.37725585     -5.54144662      4.42739697
  H     -0.95890618     -8.72339772      3.33913114
  H     -0.09614600     -7.14348158      5.04001693
  H     -0.99411059     -4.86201020      5.18026267
  H     -0.22596672     -1.50396692      7.08517580
  H     -2.72065952     -7.98776497      1.75937007
  H     -3.63560578     -5.71008000      1.90560714

