246
Energy =   -372.45489112 au
 Au     -3.37389022     -0.82845519      0.86749992
 Au     -1.26125649     -0.81574260     -1.11366677
 Au      1.26086197     -1.55758618     -0.08720447
 Au     -0.52055183      0.11409430      1.30010942
 Au     -2.81592566      1.51183949     -0.06282661
 Au      1.96738291      3.06696957      0.84903321
 Au     -0.56116422      3.14703531      0.46698767
 Au      0.92291395      1.04679223     -0.92636082
  P      2.73696532     -3.42925743     -0.15301108
  C      2.12079731     -4.89701118      0.72583217
  C      2.71529716     -6.15660212      0.60676931
  C      2.18936112     -7.24526657      1.28422295
  C      1.06217777     -7.09604195      2.08210551
  C      0.45726681     -5.85213580      2.19960923
  C      0.98370431     -4.76143648      1.52451398
  H      0.65263758     -7.95017272      2.60837247
  H      3.58747991     -6.28450945     -0.02452072
  H      0.50636649     -3.79056299      1.60796916
  H     -0.42676721     -5.72996335      2.81536107
  C      4.42689792     -3.14286617      0.45243301
  C      5.14099129     -2.09575593     -0.14104961
  C      6.42368453     -1.78723431      0.27734002
  C      7.01140498     -2.51732359      1.30297308
  C      6.30542963     -3.54530693      1.91247106
  C      5.01772591     -3.85411788      1.49731243
  H      4.47414833     -4.65614217      1.98342828
  H      8.01668099     -2.28025224      1.63046019
  H      6.75890346     -4.11305513      2.71666739
  H      4.68159344     -1.52442193     -0.94097059
  H      2.66006112     -8.21656672      1.18652288
  C      2.99379184     -4.02696595     -1.85382458
  C      1.94970562     -3.87446959     -2.76957030
  C      2.07810299     -4.32730421     -4.07238520
  C      3.25884127     -4.93135856     -4.48331718
  C      4.30865659     -5.07743297     -3.58647139
  C      4.18010630     -4.62987435     -2.27992741
  H      3.36212931     -5.28369451     -5.50281905
  H      5.23424306     -5.54311576     -3.90422846
  H      5.00792362     -4.74288132     -1.58941194
  H      6.96323677     -0.97417286     -0.19521656
  H      1.25771568     -4.20151355     -4.76952765
  H      1.03067099     -3.39084454     -2.45622108
  P     -4.33638247     -2.66691625      2.06447607
  C     -4.52362326     -4.29608591      1.26474451
  C     -3.69367932     -5.38115196      1.55011684
  C     -3.87198512     -6.59249405      0.89926486
  C     -4.86760604     -6.73327841     -0.05731221
  C     -5.68490088     -5.65397794     -0.36595539
  C     -5.51531429     -4.44532463      0.28924884
  H     -5.00712802     -7.68225963     -0.56132856
  H     -2.91312707     -5.28760406      2.29669603
  H     -6.17347355     -3.61374143      0.06141966
  H     -6.46257270     -5.75555041     -1.11402937
  C     -6.04348638     -2.25975652      2.53195109
  C     -6.47424664     -0.93720945      2.40981551
  C     -7.76248722     -0.57347719      2.76887704
  C     -8.64275640     -1.53133013      3.25282548
  C     -8.23250683     -2.85312895      3.36750145
  C     -6.94466087     -3.21848990      3.00881945
  H     -6.63756459     -4.25529228      3.08781350
  H     -9.65066030     -1.24956179      3.53378139
  H     -8.92013230     -3.60507074      3.73673735
  H     -5.79017486     -0.19046332      2.02046415
  H     -3.23014691     -7.43100150      1.14435580
  C     -3.50151316     -3.07157395      3.63364011
  C     -2.11160661     -3.22255006      3.60739789
  C     -1.41955073     -3.58447689      4.75237592
  C     -2.10023808     -3.77409411      5.94739407
  C     -3.47546917     -3.59578110      5.99174906
  C     -4.17264651     -3.24970353      4.84381772
  H     -1.55725130     -4.05415602      6.84230577
  H     -4.01188080     -3.73142130      6.92364011
  H     -5.24689093     -3.11655710      4.89382388
  H     -8.07984204      0.45787550      2.66643914
  H     -0.34465136     -3.71511433      4.71533032
  H     -1.57398740     -3.05302343      2.67933033
  P     -2.16727172     -2.09985112     -2.91949892
  C     -2.22867814     -3.86596542     -2.47210045
  C     -3.04533658     -4.78324261     -3.13940002
  C     -2.97958566     -6.13338832     -2.83474030
  C     -2.10520114     -6.58870469     -1.85678398
  C     -1.31628136     -5.68342542     -1.16144655
  C     -1.38128700     -4.33338167     -1.46604414
  H     -2.04793945     -7.64630833     -1.62826384
  H     -3.73805755     -4.43933871     -3.89871934
  H     -0.76850373     -3.62880302     -0.91336902
  H     -0.64996947     -6.02725863     -0.37879928
  C     -1.32219269     -2.12100430     -4.53425675
  C     -0.07544632     -1.50473996     -4.65275591
  C      0.60657124     -1.51718068     -5.86014193
  C      0.05496240     -2.14850925     -6.96552804
  C     -1.18182429     -2.77048812     -6.85880900
  C     -1.86566400     -2.75896941     -5.65403995
  H     -2.82913510     -3.25017831     -5.58430225
  H      0.58884176     -2.15681797     -7.90844119
  H     -1.61734209     -3.26711625     -7.71796457
  H      0.36432748     -1.01272326     -3.79134756
  H     -3.61335187     -6.83419743     -3.36549597
  C     -3.89703830     -1.68729553     -3.29095018
  C     -4.85549827     -1.96298001     -2.31054910
  C     -6.17696355     -1.58973224     -2.48617162
  C     -6.56388843     -0.93440791     -3.64834031
  C     -5.62003003     -0.64518636     -4.62431618
  C     -4.29237417     -1.00642632     -4.44355264
  H     -7.59904878     -0.64825929     -3.79183176
  H     -5.91768932     -0.14076352     -5.53636970
  H     -3.56349927     -0.76659622     -5.20927383
  H      1.57146140     -1.03152647     -5.93937260
  H     -6.90702560     -1.81307071     -1.71651685
  H     -4.55627553     -2.48317879     -1.40616874
  P     -0.41241856      0.49050741      3.67074918
  C     -1.94245428      0.28368993      4.64456648
  C     -1.96009482     -0.23531547      5.94044139
  C     -3.15551604     -0.35918456      6.63226799
  C     -4.35050025      0.03332325      6.04601672
  C     -4.34750938      0.54288558      4.75499756
  C     -3.15485893      0.65822522      4.05951099
  H     -5.28238991     -0.06380467      6.59012604
  H     -1.03799098     -0.55124603      6.41379754
  H     -3.16311518      1.03903622      3.04437205
  H     -5.27589760      0.84693563      4.28579079
  C      0.05250172      2.22693255      3.95446782
  C      1.39723197      2.60711320      3.98751026
  C      1.74772727      3.94998281      4.03347916
  C      0.76717618      4.93270526      4.02116635
  C     -0.57081503      4.56631577      3.97329498
  C     -0.92433011      3.22616314      3.94020891
  H     -1.97313058      2.95546003      3.91051652
  H      1.04624133      5.97927902      4.04758741
  H     -1.34612746      5.32394600      3.96205279
  H      2.17487267      1.85182216      3.98918292
  H     -3.15080229     -0.76738726      7.63621634
  C      0.82814711     -0.49318895      4.56194246
  C      1.21641775     -1.71243454      4.00441924
  C      2.10382835     -2.54894066      4.66641847
  C      2.62851651     -2.16515807      5.89380675
  C      2.26838565     -0.94415695      6.44846790
  C      1.37170019     -0.11372923      5.79355602
  H      3.32214045     -2.81484921      6.41428850
  H      2.68344005     -0.63839259      7.40174438
  H      1.09447012      0.83572904      6.23708402
  H      2.79411874      4.22757674      4.08043143
  H      2.38356613     -3.49767913      4.22229184
  H      0.81842724     -2.00426336      3.03839591
  P     -3.03191558      3.94352226     -0.51159512
  C     -4.51301684      3.85537465     -1.58305412
  C     -5.57551888      4.75469945     -1.48812907
  C     -6.66385611      4.64443397     -2.34011097
  C     -6.70512294      3.64021140     -3.29772200
  C     -5.65489135      2.73833515     -3.39716740
  C     -4.56987714      2.84161856     -2.54198521
  H     -7.55678732      3.55747304     -3.96257009
  H     -5.55628733      5.54230495     -0.74383353
  H     -3.75468614      2.12953469     -2.61396276
  H     -5.68132003      1.94701874     -4.13735439
  C     -2.00014316      5.15953423     -1.39926793
  C     -1.15477950      6.02034060     -0.69156719
  C     -0.33716190      6.91512039     -1.36440677
  C     -0.33109834      6.94621193     -2.75270853
  C     -1.14653213      6.07665936     -3.46427050
  C     -1.97362836      5.18852985     -2.79488919
  H     -2.61010744      4.51830319     -3.36207112
  H      0.30733696      7.64620738     -3.27846039
  H     -1.14286563      6.09193896     -4.54803481
  H     -1.15562548      6.00534291      0.39161444
  H     -7.48364642      5.34820235     -2.25499500
  C     -3.60699197      4.81282808      0.97416320
  C     -3.90608316      4.03981189      2.09794023
  C     -4.35720640      4.62679670      3.26883347
  C     -4.51349606      6.00494211      3.33432570
  C     -4.22782160      6.78581985      2.22244429
  C     -3.78090900      6.19837637      1.04866738
  H     -4.86035056      6.46924689      4.24984777
  H     -4.35483201      7.86117274      2.26730461
  H     -3.56208411      6.82047985      0.18867935
  H      0.29300028      7.59302018     -0.80031442
  H     -4.58529763      4.00802134      4.12926496
  H     -3.78238408      2.96339166      2.04610842
  P      4.31046096      2.96393828      1.21040116
  C      4.91298638      4.46792014      2.02409460
  C      5.25161808      4.52610875      3.37823964
  C      5.59321395      5.73645721      3.96448035
  C      5.58951253      6.90385831      3.21443027
  C      5.23267834      6.86189219      1.87277931
  C      4.88785493      5.65622787      1.28464549
  H      5.85730016      7.84694822      3.67585592
  H      5.25509347      3.62310926      3.97782225
  H      4.59104808      5.62963667      0.24107464
  H      5.21714672      7.77177407      1.28394917
  C      5.42731725      2.68729147     -0.20791128
  C      5.14489111      1.58955880     -1.02549458
  C      5.99711321      1.24087821     -2.06089934
  C      7.13638400      1.99742947     -2.30652309
  C      7.41635386      3.09947397     -1.51136011
  C      6.57337304      3.43979475     -0.46274127
  H      6.81476427      4.29199800      0.16150953
  H      7.80276341      1.72660117     -3.11684812
  H      8.30309789      3.69366378     -1.69886232
  H      4.25066317      1.00164515     -0.83940861
  H      5.86128221      5.76508397      5.01426082
  C      4.85060251      1.55884414      2.23469491
  C      3.99476342      0.46813717      2.38930718
  C      4.41197815     -0.66146926      3.07500670
  C      5.67864990     -0.70760681      3.63831581
  C      6.54290671      0.36809090      3.48329386
  C      6.13982180      1.48632870      2.77141583
  H      5.99652786     -1.58761916      4.18500642
  H      7.53972007      0.33047879      3.90689186
  H      6.83292956      2.30682957      2.62372466
  H      5.77087102      0.37963349     -2.67907213
  H      3.74658459     -1.51121789      3.16536593
  H      2.99987600      0.50094623      1.95653436
  P      1.75051414      1.96955571     -2.99968660
  C      2.76442426      3.47803802     -2.87727927
  C      4.07410002      3.57696471     -3.34889906
  C      4.80845741      4.73678683     -3.15027296
  C      4.25171651      5.81106262     -2.47141148
  C      2.94885331      5.72462011     -1.99658367
  C      2.21178268      4.56934083     -2.19834942
  H      4.82772558      6.71566947     -2.31707142
  H      4.52704737      2.74394313     -3.87308070
  H      1.18979089      4.51434143     -1.84049819
  H      2.50388533      6.56062878     -1.46998499
  C      0.41181521      2.45983716     -4.13527384
  C     -0.81791001      1.80568798     -4.03968299
  C     -1.85367316      2.11083754     -4.90758707
  C     -1.67958743      3.08681925     -5.87976907
  C     -0.46775057      3.75822522     -5.97335094
  C      0.57126600      3.45055608     -5.10775487
  H      1.50869872      3.98961321     -5.18230239
  H     -2.48848602      3.32651273     -6.55966198
  H     -0.32775554      4.52394599     -6.72740612
  H     -0.96417049      1.05062601     -3.27435611
  H      5.82393264      4.79673390     -3.52431557
  C      2.76590093      0.82232265     -3.98754118
  C      3.21245608     -0.35971188     -3.39501989
  C      4.02610126     -1.24111160     -4.09076242
  C      4.39507078     -0.95831149     -5.39845639
  C      3.94187567      0.20512272     -6.00760596
  C      3.13367604      1.09004713     -5.30998666
  H      5.03072007     -1.64580310     -5.94376997
  H      4.22120100      0.42689655     -7.03089684
  H      2.78221326      1.99243137     -5.79689668
  H     -2.79766416      1.58422967     -4.82644707
  H      4.37075494     -2.14981163     -3.61138318
  H      2.91896788     -0.58954853     -2.37591930
