246
Energy =   -372.44989263 au
 Au     -0.33773567      0.85963918      0.23170508
 Au     -2.36905084     -1.03727661      0.37418755
 Au      0.36805580      2.10849718      2.43072381
 Au     -2.75559611      1.10603890     -1.15366180
 Au      1.72831700      0.52739247     -1.99115149
 Au     -0.83860087     -0.74232458     -1.96743970
 Au      1.66059143     -2.01850581     -1.65815548
 Au      2.16055905      0.71011178      0.96322616
  P     -1.71420791     -1.67722454     -4.05886553
  C     -0.69388735     -2.88776290     -4.95750772
  C     -1.03359968     -4.23582589     -5.07691321
  C     -0.17260334     -5.12309727     -5.70607724
  C      1.03396223     -4.67772625     -6.22570310
  C      1.38190832     -3.33730388     -6.11287221
  C      0.53212372     -2.45094888     -5.47238053
  H      1.70375198     -5.37186656     -6.71940272
  H     -1.97577379     -4.59378868     -4.67817273
  H      0.81141444     -1.40640652     -5.37701521
  H      2.31903306     -2.98258262     -6.52592493
  C     -2.02927415     -0.39378705     -5.31507427
  C     -2.23886375      0.91869639     -4.88825862
  C     -2.50269316      1.93000970     -5.79693885
  C     -2.55717065      1.64455217     -7.15468790
  C     -2.33436909      0.34702228     -7.59542425
  C     -2.06860437     -0.66522549     -6.68606591
  H     -1.88057720     -1.67098818     -7.04383858
  H     -2.76501880      2.43396646     -7.86734063
  H     -2.36542718      0.12073484     -8.65484822
  H     -2.18554353      1.15128838     -3.82939642
  H     -0.44890376     -6.16782072     -5.79042154
  C     -3.32964581     -2.50336132     -3.86073201
  C     -3.70646976     -2.93054637     -2.58610740
  C     -4.92446195     -3.55656342     -2.37430121
  C     -5.78914022     -3.76434385     -3.43988794
  C     -5.42897044     -3.34314995     -4.71355989
  C     -4.20974989     -2.71702586     -4.92495718
  H     -6.74363156     -4.25110488     -3.27801671
  H     -6.09991132     -3.50507606     -5.54913983
  H     -3.94243302     -2.38877854     -5.92277969
  H     -2.65656267      2.94353675     -5.44453389
  H     -5.19945158     -3.87685911     -1.37559818
  H     -3.03624653     -2.76473785     -1.74857092
  P     -4.41595389      2.70806817     -1.72339967
  C     -5.77372612      1.96388064     -2.67521222
  C     -7.03083023      2.56660777     -2.77993473
  C     -8.03612108      1.96311363     -3.51822736
  C     -7.80248671      0.75374941     -4.16033044
  C     -6.55958446      0.14467957     -4.05870528
  C     -5.55327469      0.74398631     -3.31804424
  H     -8.59081663      0.28490223     -4.73744229
  H     -7.22054140      3.50894149     -2.27803099
  H     -4.58360102      0.26335814     -3.23555681
  H     -6.37207378     -0.80145714     -4.55395599
  C     -3.94045205      4.18824109     -2.66424488
  C     -3.07746380      5.10785112     -2.05957427
  C     -2.59990839      6.19891001     -2.76635191
  C     -2.97146603      6.38377314     -4.09210812
  C     -3.82511011      5.47638724     -4.70373849
  C     -4.30523503      4.38221524     -3.99809062
  H     -4.97774834      3.68308501     -4.48172532
  H     -2.59897725      7.23745020     -4.64593737
  H     -4.12258543      5.62043076     -5.73597336
  H     -2.79365671      4.96800967     -1.02207650
  H     -9.00711216      2.43872839     -3.59258297
  C     -5.21634533      3.33430739     -0.21554484
  C     -5.29046816      2.46744564      0.87850982
  C     -5.89917004      2.86360753      2.05780185
  C     -6.43666843      4.14049889      2.16377222
  C     -6.36118538      5.01379916      1.08722347
  C     -5.75768630      4.61628606     -0.09657477
  H     -6.91483420      4.45343368      3.08453658
  H     -6.77736652      6.01129077      1.16764458
  H     -5.70293169      5.30655816     -0.93052811
  H     -1.93627120      6.90601668     -2.28200648
  H     -5.95348771      2.17552862      2.89416498
  H     -4.86520769      1.47162079      0.79964510
  P      0.44012036      3.09329398      4.59119532
  C     -1.21302887      3.40938326      5.28233138
  C     -1.48501187      3.48058202      6.65032630
  C     -2.76901864      3.75852752      7.09434553
  C     -3.79505861      3.97211278      6.18212733
  C     -3.53646548      3.89662126      4.82013770
  C     -2.25589200      3.61226074      4.37459983
  H     -4.79586426      4.19448605      6.53321960
  H     -0.69092149      3.31680050      7.36979372
  H     -2.05514934      3.54505061      3.30998190
  H     -4.33290934      4.05756775      4.10223929
  C      1.30689240      4.67924937      4.79845798
  C      2.69865802      4.69620020      4.65720607
  C      3.39883703      5.88987128      4.72422474
  C      2.71974251      7.08577193      4.91983613
  C      1.33804139      7.08149601      5.04793899
  C      0.63298708      5.88835655      4.98350506
  H     -0.44595800      5.89584754      5.08779689
  H      3.26785655      8.01904416      4.97134478
  H      0.80312889      8.01185207      5.19966410
  H      3.23317092      3.76435699      4.50359916
  H     -2.96889613      3.81373801      8.15808934
  C      1.30088477      1.99999657      5.76267557
  C      1.44699399      0.65376504      5.41801696
  C      2.13110009     -0.22166350      6.24616775
  C      2.68459401      0.23816709      7.43353638
  C      2.55029814      1.57428690      7.78650986
  C      1.86644517      2.45135107      6.95855996
  H      3.22526892     -0.44311653      8.07997148
  H      2.98513588      1.93779257      8.71032332
  H      1.78341006      3.49612202      7.23538750
  H      4.47812386      5.88561500      4.62184037
  H      2.23712877     -1.26214051      5.95982850
  H      1.02958650      0.29532941      4.48267046
  P      4.32165213      0.04613502      1.62614082
  C      5.12629962      1.36541727      2.57691123
  C      5.00223324      1.44767886      3.96589395
  C      5.53227773      2.52808618      4.65566600
  C      6.17781921      3.54742456      3.96768271
  C      6.27840131      3.49123145      2.58348495
  C      5.75167809      2.41262032      1.89168127
  H      6.60008678      4.38560132      4.50934627
  H      4.49330075      0.66103331      4.51200386
  H      5.82934953      2.37661637      0.80984869
  H      6.77007045      4.29024244      2.04062428
  C      5.58418014     -0.53047784      0.44391777
  C      5.15331035     -1.14846400     -0.73200812
  C      6.06254619     -1.63658928     -1.65621594
  C      7.42411773     -1.50637290     -1.41862908
  C      7.86659344     -0.88887654     -0.25633149
  C      6.95662526     -0.40504372      0.67171637
  H      7.31445477      0.07603274      1.57469205
  H      8.13950126     -1.88341194     -2.13989671
  H      8.92877913     -0.78364062     -0.06844713
  H      4.08949524     -1.24202042     -0.92659588
  H      5.44454028      2.56979178      5.73534614
  C      4.16696257     -1.33637177      2.79971297
  C      2.92011614     -1.94136899      2.96434646
  C      2.74990384     -2.98291035      3.86333374
  C      3.82890293     -3.43772950      4.60901524
  C      5.07851024     -2.85203156      4.44595100
  C      5.24943117     -1.81120476      3.54651610
  H      3.69771520     -4.25065485      5.31346366
  H      5.92377262     -3.20723104      5.02371754
  H      6.22797681     -1.36051148      3.42445173
  H      5.70594866     -2.11507587     -2.56161680
  H      1.77477294     -3.44244332      3.97790816
  H      2.07541790     -1.58790093      2.38270212
  P      2.23318315     -4.34251120     -1.64758949
  C      2.95704052     -5.13286373     -0.17104442
  C      2.60388696     -6.40461336      0.28583431
  C      3.22878691     -6.94786203      1.40018647
  C      4.21526134     -6.23464957      2.06618137
  C      4.57494887     -4.97013263      1.61826772
  C      3.94390122     -4.41958095      0.51539121
  H      4.70594774     -6.66363997      2.93195375
  H      1.84593424     -6.97757998     -0.23593658
  H      4.22327191     -3.42799245      0.17423284
  H      5.34845137     -4.41013704      2.13127604
  C      3.52818857     -4.65318048     -2.88755156
  C      3.74621370     -3.68316817     -3.86818098
  C      4.73031102     -3.85356112     -4.82945587
  C      5.51327855     -5.00004219     -4.82309446
  C      5.31460571     -5.96708957     -3.84688335
  C      4.33467453     -5.79505714     -2.88146505
  H      4.20414456     -6.54629419     -2.11070484
  H      6.28289199     -5.13587687     -5.57373753
  H      5.93019430     -6.85901995     -3.83286384
  H      3.13427658     -2.78734335     -3.87254877
  H      2.94626972     -7.93641838      1.74329883
  C      0.84812238     -5.42765780     -2.12052438
  C     -0.44253715     -4.99535068     -1.80701182
  C     -1.54738591     -5.77564001     -2.10894323
  C     -1.37791445     -6.99814483     -2.74518083
  C     -0.10192170     -7.42954881     -3.08288440
  C      1.00439320     -6.65242385     -2.77370613
  H     -2.23973241     -7.60982880     -2.98454270
  H      0.03412988     -8.37855492     -3.58831811
  H      1.99423115     -6.99699408     -3.04969566
  H      4.88765415     -3.08924701     -5.58183725
  H     -2.54123141     -5.42662353     -1.85190042
  H     -0.57824314     -4.03127652     -1.32703746
  P     -3.03084996     -2.35729525      2.21228085
  C     -4.60067784     -3.24332596      1.99893700
  C     -4.88257142     -4.47217638      2.59846614
  C     -6.10165965     -5.09409005      2.37588206
  C     -7.05153449     -4.50076479      1.55564955
  C     -6.77949053     -3.28087906      0.94990089
  C     -5.55980531     -2.65912999      1.16535736
  H     -8.00290942     -4.99045051      1.38463138
  H     -4.14638239     -4.94462457      3.23874386
  H     -5.34157951     -1.71094748      0.68381745
  H     -7.51634079     -2.81389240      0.30656460
  C     -3.27030616     -1.29441559      3.66768767
  C     -2.13570258     -0.76142359      4.28947375
  C     -2.26419372      0.09683164      5.36829711
  C     -3.52576943      0.45371662      5.82698231
  C     -4.65717907     -0.04549230      5.19790240
  C     -4.53301202     -0.91458196      4.12388675
  H     -5.42202819     -1.30722972      3.64348754
  H     -3.62511133      1.12427339      6.67239747
  H     -5.64318363      0.23673247      5.54856227
  H     -1.14822327     -1.03317652      3.92985791
  H     -6.31020325     -6.04794371      2.84627431
  C     -1.82056079     -3.58384473      2.78451561
  C     -0.89099803     -4.07058118      1.86436532
  C      0.05129062     -5.01154128      2.24422842
  C      0.08559520     -5.47195040      3.55385364
  C     -0.82680447     -4.98585023      4.48172583
  C     -1.77504541     -4.04851760      4.10241131
  H      0.82319550     -6.20902945      3.84956607
  H     -0.80073021     -5.33911768      5.50596440
  H     -2.47888115     -3.66780896      4.83364612
  H     -1.37693728      0.48920241      5.85262331
  H      0.76309461     -5.38435777      1.51756768
  H     -0.90915684     -3.70199537      0.84415849
  P      2.16018901      2.84885672     -2.34952312
  C      1.33642743      3.63667226     -3.76523112
  C      0.99933730      4.99271578     -3.80380340
  C      0.36945941      5.52509729     -4.91806341
  C      0.07020462      4.71675284     -6.00651661
  C      0.40011335      3.36835828     -5.97810611
  C      1.02243792      2.83097825     -4.86270455
  H     -0.42083104      5.13741945     -6.87621024
  H      1.22426390      5.63139404     -2.95725440
  H      1.26750930      1.77408850     -4.83665192
  H      0.16778767      2.73251114     -6.82453610
  C      3.92762566      3.25094185     -2.49868090
  C      4.84818817      2.31882190     -2.01257218
  C      6.20897613      2.57812017     -2.05662945
  C      6.66758124      3.77234623     -2.59619295
  C      5.76242964      4.70040160     -3.09426843
  C      4.40080469      4.44503009     -3.04726973
  H      3.70168086      5.17465586     -3.44008846
  H      7.73096869      3.97741837     -2.63422015
  H      6.11887313      5.63010305     -3.52232591
  H      4.48969235      1.38116059     -1.60045840
  H      0.11325678      6.57811075     -4.93692558
  C      1.63048378      3.84206508     -0.91975522
  C      0.27310861      4.12674046     -0.74498890
  C     -0.17041537      4.76564310      0.40251487
  C      0.73347146      5.12514738      1.39511355
  C      2.08233585      4.83142531      1.23872899
  C      2.52649018      4.18721245      0.09442818
  H      0.38702810      5.63794752      2.28419713
  H      2.79077372      5.10361012      2.01257736
  H      3.58034645      3.95770541     -0.01507065
  H      6.91063678      1.84381444     -1.67685452
  H     -1.22427396      4.98551991      0.52718720
  H     -0.43870584      3.84747733     -1.51477124
