246
Energy =   -372.44046423 au
 Au      0.75538854      3.64728712     -1.08710374
 Au      1.57551747     -3.07164429     -0.07796262
 Au     -2.47416357     -0.27125346     -1.50952056
 Au     -0.49262166     -1.38463177      0.05917471
 Au     -3.12129807     -1.94561305      0.35609858
 Au     -1.61972749      2.42809062     -0.54598850
 Au      1.93732553     -0.65691516      1.01404684
 Au      0.60296225      1.06290150     -0.80884120
  P     -3.83340075      3.04558538     -0.08417831
  C     -4.94029809      1.60559645     -0.14722233
  C     -5.27730007      0.89866619      1.00816148
  C     -5.97451383     -0.29864703      0.92352903
  C     -6.34902121     -0.80255530     -0.31582096
  C     -6.02480143     -0.10386385     -1.47174468
  C     -5.31438384      1.08434993     -1.39119719
  H     -6.89723532     -1.73486046     -0.38031488
  H     -4.99435167      1.28717585      1.97976194
  H     -5.05853777      1.62076109     -2.29794024
  H     -6.32327720     -0.48626690     -2.44071990
  C     -4.54222696      4.25518788     -1.23334312
  C     -3.67435058      5.15566012     -1.85722721
  C     -4.15876714      6.10835757     -2.73853791
  C     -5.51861810      6.17156070     -3.01211337
  C     -6.39024541      5.28100700     -2.39985347
  C     -5.90952690      4.32759115     -1.51544506
  H     -6.59625349      3.63215773     -1.04649794
  H     -5.89885571      6.91348556     -3.70430048
  H     -7.45205501      5.32758954     -2.61185478
  H     -2.61139678      5.10744237     -1.64540893
  H     -6.23348621     -0.83533188      1.82884310
  C     -4.07111650      3.73056056      1.58013034
  C     -3.16818310      3.35951712      2.57994624
  C     -3.32077232      3.82619361      3.87544031
  C     -4.36524376      4.68691076      4.18416644
  C     -5.25771671      5.07654725      3.19404150
  C     -5.11675283      4.60040501      1.89967111
  H     -4.48129642      5.05766910      5.19574690
  H     -6.07063415      5.75302475      3.43081898
  H     -5.81966797      4.90640783      1.13323332
  H     -3.47252908      6.79952610     -3.21474969
  H     -2.61827282      3.52242716      4.64290028
  H     -2.33940034      2.70392851      2.33328401
  P      2.39432379     -5.24361849     -0.48269644
  C      2.88275588     -6.09855205      1.04641410
  C      2.83661977     -7.48611796      1.19837620
  C      3.24300268     -8.07373783      2.38679760
  C      3.70241953     -7.28846020      3.43571725
  C      3.75141233     -5.90730030      3.29549124
  C      3.34072552     -5.31821863      2.11058762
  H      4.01946988     -7.75133203      4.36269102
  H      2.47456225     -8.10804031      0.38781482
  H      3.36518113     -4.23863982      2.00544333
  H      4.10548346     -5.28781908      4.11181697
  C      3.90361714     -5.27962187     -1.49415882
  C      4.40128938     -4.07850657     -2.00105813
  C      5.55175808     -4.05905690     -2.77381890
  C      6.22722243     -5.24191098     -3.03949464
  C      5.74947241     -6.44232788     -2.52890790
  C      4.59617767     -6.46466454     -1.76148571
  H      4.23120687     -7.40475724     -1.36304718
  H      7.12832844     -5.22884949     -3.64121055
  H      6.27865259     -7.36651255     -2.72986788
  H      3.88292735     -3.15161162     -1.77868129
  H      3.20055289     -9.15140948      2.49362010
  C      1.23242005     -6.38781040     -1.28147093
  C      0.09793950     -6.77324964     -0.55885061
  C     -0.86373611     -7.58405201     -1.13728008
  C     -0.71897181     -8.00400985     -2.45381495
  C      0.39348063     -7.61282702     -3.18529834
  C      1.36457669     -6.80944431     -2.60544790
  H     -1.47377024     -8.63544871     -2.90757790
  H      0.51014092     -7.93709902     -4.21291945
  H      2.23523318     -6.51862099     -3.18219050
  H      5.92319687     -3.11784735     -3.16265782
  H     -1.73126690     -7.88504492     -0.56113392
  H     -0.02310104     -6.44018369      0.46647784
  P     -3.61383200     -4.03707539      1.40378186
  C     -3.96864598     -5.21078271      0.05810369
  C     -4.89910814     -6.24778466      0.14457948
  C     -5.10357988     -7.09728520     -0.93303985
  C     -4.38511326     -6.92484659     -2.10790448
  C     -3.45547990     -5.89688390     -2.20495076
  C     -3.25049474     -5.04762658     -1.13052300
  H     -4.55029299     -7.58804285     -2.94886436
  H     -5.47005589     -6.38839982      1.05512763
  H     -2.52298802     -4.24605061     -1.20873492
  H     -2.88946549     -5.75580507     -3.11899187
  C     -4.96408632     -4.26327334      2.59856189
  C     -4.75111114     -4.63957669      3.92648269
  C     -5.81483879     -4.70764948      4.81445803
  C     -7.09951385     -4.39576123      4.39251762
  C     -7.32173321     -4.01272626      3.07583846
  C     -6.26196381     -3.93969691      2.18703787
  H     -6.43749814     -3.63786569      1.15939486
  H     -7.92804587     -4.44997082      5.08871370
  H     -8.32314184     -3.76794518      2.74115520
  H     -3.75217770     -4.89056195      4.26460270
  H     -5.82994697     -7.89775654     -0.85364925
  C     -2.15893856     -4.80816696      2.19036422
  C     -1.06636706     -4.01541128      2.54020066
  C      0.05976539     -4.57434322      3.12410056
  C      0.10817984     -5.93923750      3.36932355
  C     -0.97008339     -6.74226513      3.01955531
  C     -2.09561288     -6.18351842      2.43341420
  H      0.98544458     -6.37802632      3.83010380
  H     -0.93430617     -7.80942692      3.20525522
  H     -2.93086332     -6.81831447      2.15913793
  H     -5.63688126     -5.00697089      5.84088455
  H      0.89790157     -3.94029656      3.39126864
  H     -1.10185638     -2.94790246      2.35807700
  P      1.05097709      0.36393579      3.22933917
  C      2.35702182     -0.15459623      4.38706126
  C      2.98724321      0.68303207      5.30750071
  C      4.06285544      0.22524407      6.05504909
  C      4.52873721     -1.07138805      5.89374910
  C      3.91527643     -1.91445277      4.97575215
  C      2.84570136     -1.45690546      4.22563319
  H      5.37216838     -1.42348828      6.47567235
  H      2.64682792      1.70382482      5.43616347
  H      2.38066903     -2.11167911      3.49509555
  H      4.27683263     -2.92738283      4.83823714
  C     -0.45304698     -0.48427269      3.84011906
  C     -1.65027940     -0.19204235      3.17782209
  C     -2.83489074     -0.80688095      3.54828523
  C     -2.84092558     -1.73775839      4.58004557
  C     -1.65744855     -2.04541089      5.23500762
  C     -0.47046167     -1.42358425      4.87057981
  H      0.44524322     -1.66980247      5.39543569
  H     -3.76692045     -2.22077189      4.86935858
  H     -1.65519971     -2.77320253      6.03817855
  H     -1.65049874      0.53236340      2.36936664
  H      4.54332937      0.89098163      6.76273300
  C      0.64929064      2.09003620      3.70787301
  C      0.74808952      3.10352249      2.75415981
  C      0.46741898      4.42075844      3.08477118
  C      0.07656179      4.74312387      4.37607706
  C     -0.04784138      3.74056470      5.33030523
  C      0.23026647      2.42294728      4.99957700
  H     -0.13855818      5.77260282      4.63734118
  H     -0.35956127      3.98654949      6.33874160
  H      0.11746750      1.64527485      5.74667521
  H     -3.75594225     -0.55379847      3.03676448
  H      0.55452001      5.19586573      2.33207575
  H      1.04412734      2.85741435      1.73978120
  P      1.14804148      5.98432868     -1.05623306
  C      1.09767183      6.84797364     -2.65278797
  C     -0.05630704      7.50744706     -3.08546551
  C     -0.10688772      8.08188524     -4.34664318
  C      0.98783005      7.99944430     -5.19597870
  C      2.13454754      7.33256822     -4.78310723
  C      2.18745225      6.75311552     -3.52466796
  H      0.94794000      8.45246803     -6.17942292
  H     -0.91458445      7.58146232     -2.42680254
  H      3.08331361      6.22784999     -3.21114123
  H      2.99179894      7.26388315     -5.44266085
  C      2.74240981      6.44669667     -0.31309051
  C      3.26720408      5.59979102      0.66723607
  C      4.46550054      5.89993045      1.29439923
  C      5.15976887      7.05165857      0.94844816
  C      4.64863446      7.90062435     -0.02340447
  C      3.44791863      7.60434759     -0.65078236
  H      3.06187526      8.27332524     -1.41119962
  H      6.09971464      7.28516207      1.43440103
  H      5.18759057      8.80018683     -0.29713100
  H      2.72996841      4.69450794      0.93115560
  H     -1.00554880      8.59754456     -4.66502310
  C     -0.05460340      6.89135225     -0.02969734
  C     -1.12359894      6.21285751      0.55732302
  C     -2.04284725      6.88518305      1.34857006
  C     -1.90180827      8.24763965      1.56961239
  C     -0.83889682      8.93434564      0.99646329
  C      0.07818895      8.26421548      0.20344103
  H     -2.61850715      8.77417938      2.18882514
  H     -0.72388071      9.99856271      1.16770843
  H      0.90559033      8.80842563     -0.23823324
  H      4.86028569      5.23105323      2.05083165
  H     -2.86958662      6.34257575      1.79200169
  H     -1.23665378      5.14695950      0.39131624
  P     -1.90069837      0.21650863     -3.80369764
  C     -0.76298327     -1.18685002     -4.04169321
  C     -1.19985917     -2.41157790     -4.55086599
  C     -0.37019351     -3.52306991     -4.52753284
  C      0.90848633     -3.43153988     -3.99652524
  C      1.35537876     -2.21947885     -3.48676288
  C      0.52310655     -1.11320283     -3.50074177
  H      1.55611023     -4.30014275     -3.97686953
  H     -2.19777888     -2.49851434     -4.96539202
  H      0.87402322     -0.17576456     -3.08159129
  H      2.35563991     -2.13348467     -3.07878387
  C     -0.94641484      1.67812775     -4.33402081
  C     -1.36738032      2.92830890     -3.87282972
  C     -0.66341982      4.07843293     -4.19544703
  C      0.47180932      3.99445993     -4.99188209
  C      0.88924766      2.76097192     -5.47136620
  C      0.18659131      1.60947422     -5.14749906
  H      0.52003749      0.65281521     -5.53217163
  H      1.02578799      4.89106966     -5.24351549
  H      1.76542031      2.69363537     -6.10581919
  H     -2.26208211      2.99949468     -3.26262734
  H     -0.72720545     -4.46732716     -4.92276588
  C     -3.16680731     -0.00466529     -5.08776118
  C     -4.26668560     -0.81228467     -4.78204366
  C     -5.26602010     -1.02484252     -5.71796236
  C     -5.18520452     -0.42323858     -6.96693413
  C     -4.10243657      0.38874826     -7.27631501
  C     -3.09716139      0.59904592     -6.34507521
  H     -5.96859482     -0.58449621     -7.69801757
  H     -4.03852668      0.86167179     -8.24945055
  H     -2.25446731      1.23341188     -6.59533758
  H     -1.00608545      5.04120300     -3.83369305
  H     -6.11106555     -1.65675970     -5.47009418
  H     -4.33356188     -1.27252555     -3.80142438
  P      4.22016767      0.20578139      0.75826752
  C      4.15262767      1.29401228     -0.70256847
  C      4.46097088      2.65336568     -0.68341991
  C      4.21326953      3.44780390     -1.79504015
  C      3.65351059      2.89927343     -2.94045894
  C      3.36924581      1.53910513     -2.98356137
  C      3.61207560      0.74679409     -1.87369420
  H      3.45015757      3.52477610     -3.80164688
  H      4.89505945      3.09997242      0.20332573
  H      3.38852350     -0.31358655     -1.91067871
  H      2.95072135      1.09840541     -3.88082035
  C      5.49167635     -1.02986662      0.35205131
  C      5.46127552     -2.23864792      1.05390047
  C      6.38573649     -3.23500762      0.78704027
  C      7.35285667     -3.03690213     -0.18979660
  C      7.39039637     -1.84165525     -0.89565533
  C      6.46646917     -0.84191342     -0.62980838
  H      6.50071967      0.08777747     -1.18624113
  H      8.07430640     -3.81638241     -0.40453815
  H      8.14484682     -1.68513119     -1.65788826
  H      4.70298153     -2.39132768      1.81527278
  H      4.45842188      4.50297122     -1.76308692
  C      4.96220474      1.21908591      2.07591378
  C      4.19868428      2.26759736      2.59927911
  C      4.67016729      3.03167301      3.65435461
  C      5.91073058      2.74938383      4.21301928
  C      6.67153354      1.70303213      3.71082497
  C      6.20286303      0.93967057      2.65166217
  H      6.27928682      3.34081379      5.04274374
  H      7.63714092      1.47610104      4.14760243
  H      6.80526074      0.12352005      2.27008539
  H      6.34758251     -4.16812193      1.33753873
  H      4.06222780      3.83713325      4.05051296
  H      3.22321758      2.47850359      2.17491772
