246
Energy =   -372.43179570 au
 Au     -1.00785849      3.66919207     -1.20869336
 Au     -2.88397307      1.88108691     -1.67675008
 Au     -1.59066016      1.72895459      0.84281198
 Au     -0.11870390      1.18260332     -1.73850850
 Au     -0.10762243     -0.53052775      0.64483663
 Au      0.36104477     -3.04887644      0.16976213
 Au     -0.92529646      0.54692556      3.02837274
 Au      1.31624637     -1.22205355     -1.60353628
  P      3.79332993     -2.04512281     -1.03084798
  C      5.18614712     -1.25134377     -1.91649062
  C      5.69458064     -0.03186618     -1.45466140
  C      6.73824880      0.59634269     -2.11559198
  C      7.27739553      0.03068524     -3.26421090
  C      6.76170939     -1.16255488     -3.74970796
  C      5.72561603     -1.79867361     -3.08280327
  H      8.09472893      0.52097028     -3.77962763
  H      5.28212569      0.42126575     -0.56000598
  H      5.34544376     -2.73935998     -3.46448297
  H      7.17213735     -1.60687193     -4.64907995
  C      4.01540562     -3.80198154     -1.49991773
  C      3.00731457     -4.44306698     -2.22069470
  C      3.15522669     -5.75913629     -2.63234454
  C      4.30240332     -6.46565685     -2.30409231
  C      5.30634684     -5.84646821     -1.57099337
  C      5.16973680     -4.52469206     -1.17980433
  H      5.96640886     -4.05079389     -0.61831929
  H      4.41425105     -7.49642931     -2.61904462
  H      6.20446818     -6.39311675     -1.30814192
  H      2.10036181     -3.90144463     -2.46767635
  H      7.13310354      1.52949724     -1.73034026
  C      4.42684037     -2.04950476      0.69676235
  C      3.51411010     -2.11296315      1.75226288
  C      3.94233068     -2.12278349      3.07024231
  C      5.29831597     -2.07680394      3.36094877
  C      6.21899548     -2.01665584      2.32460293
  C      5.79001615     -1.99851555      1.00632778
  H      5.63425398     -2.08379812      4.39110093
  H      7.28032565     -1.97962279      2.54099422
  H      6.52575570     -1.93396773      0.21357821
  H      2.37262946     -6.23174536     -3.21387484
  H      3.21413274     -2.16750268      3.87090349
  H      2.45070167     -2.14699172      1.54043525
  P      1.35219912     -0.87812974     -4.01490593
  C      1.30709705     -2.42305507     -4.98344179
  C      0.14285943     -2.92449713     -5.56757628
  C      0.15885152     -4.13962160     -6.23670488
  C      1.33243639     -4.87634641     -6.32463240
  C      2.49526034     -4.39126827     -5.74093506
  C      2.48224098     -3.17770582     -5.07290962
  H      1.34157464     -5.82427332     -6.84934997
  H     -0.78086847     -2.36014376     -5.51602771
  H      3.39532955     -2.80257013     -4.62377122
  H      3.41669954     -4.95833613     -5.80594726
  C      2.79895011     -0.00015145     -4.67663757
  C      3.48411011      0.87948918     -3.83701763
  C      4.59073286      1.57404264     -4.29706831
  C      5.03001853      1.39918938     -5.60200503
  C      4.35525912      0.52905424     -6.44742446
  C      3.24683814     -0.16655680     -5.99141634
  H      2.72631789     -0.84491228     -6.65749015
  H      5.90050095      1.93767337     -5.95777706
  H      4.69383540      0.38975199     -7.46749567
  H      3.14727263      1.01272268     -2.81407733
  H     -0.75021282     -4.50653910     -6.69919072
  C     -0.06538085      0.08530197     -4.64150592
  C     -1.35546537     -0.28812410     -4.24650650
  C     -2.45932354      0.43808634     -4.66818111
  C     -2.29262501      1.56639870     -5.46107937
  C     -1.01652877      1.95777523     -5.83909498
  C      0.08821019      1.21984392     -5.44036904
  H     -3.15661688      2.13715371     -5.78032548
  H     -0.87743764      2.84031451     -6.45264560
  H      1.07831421      1.53278800     -5.75032303
  H      5.11768196      2.24651886     -3.63107159
  H     -3.45445053      0.11909686     -4.38224105
  H     -1.49449534     -1.14701953     -3.59891772
  P     -0.52122065     -0.19303548      5.23789188
  C     -2.06875002     -0.53794024      6.12844899
  C     -2.10132460     -1.11259178      7.40214179
  C     -3.31224392     -1.34609231      8.03385772
  C     -4.50560204     -1.01043718      7.40661641
  C     -4.48577762     -0.44078637      6.14118503
  C     -3.27543357     -0.20890635      5.50677992
  H     -5.45058076     -1.19407970      7.90445473
  H     -1.17561635     -1.37785725      7.90035865
  H     -3.25974320      0.23447993      4.51609564
  H     -5.41353037     -0.17717614      5.64562065
  C      0.32743897      1.04422273      6.26005227
  C      1.71926921      1.16856282      6.19565441
  C      2.36467680      2.19918951      6.86120097
  C      1.63056601      3.12773425      7.58743888
  C      0.24742189      3.02126599      7.64743951
  C     -0.40171282      1.99047903      6.98501608
  H     -1.48231157      1.91386163      7.03563688
  H      2.13637322      3.93369254      8.10596894
  H     -0.32986915      3.74243809      8.21452929
  H      2.29844200      0.44687322      5.62891416
  H     -3.32471919     -1.79188357      9.02167897
  C      0.46535674     -1.71240092      5.41742577
  C      0.51510583     -2.58744310      4.33011479
  C      1.22326947     -3.77681676      4.40792521
  C      1.89547663     -4.10879276      5.57681720
  C      1.86279725     -3.24193460      6.66085098
  C      1.15590947     -2.05134435      6.58407961
  H      2.44981779     -5.03812655      5.63763481
  H      2.39262120     -3.49277591      7.57244268
  H      1.14783027     -1.37769062      7.43319367
  H      3.44463174      2.27808083      6.81062064
  H      1.25707048     -4.44184839      3.55257441
  H     -0.00075627     -2.32505085      3.41205399
  P     -4.76035137      0.43034865     -1.50861522
  C     -4.15802531     -1.26060545     -1.19534258
  C     -3.81079694     -1.66983042      0.09403656
  C     -3.24464732     -2.91633053      0.30905990
  C     -3.00850680     -3.76979069     -0.76071378
  C     -3.32864498     -3.36638009     -2.04954449
  C     -3.89423151     -2.11977520     -2.26628906
  H     -2.58825371     -4.75318762     -0.58726503
  H     -3.99651769     -1.01673753      0.93914476
  H     -4.15044036     -1.81914746     -3.27576389
  H     -3.14447035     -4.02680792     -2.88920793
  C     -5.90664099      0.26876839     -2.90565849
  C     -5.93493871      1.28868046     -3.86060925
  C     -6.80932879      1.22630546     -4.93442460
  C     -7.66528448      0.14189157     -5.06928111
  C     -7.64307915     -0.88026419     -4.12943927
  C     -6.77123193     -0.82131886     -3.05353385
  H     -6.75525406     -1.62617959     -2.32725118
  H     -8.34862227      0.09135992     -5.90872080
  H     -8.30901875     -1.72896910     -4.23364054
  H     -5.26251945      2.13412796     -3.75797864
  H     -2.99819288     -3.22896723      1.31738638
  C     -5.80802923      0.80737310     -0.06594827
  C     -5.18678447      1.27073848      1.09631994
  C     -5.92497463      1.58718392      2.22431927
  C     -7.30755257      1.46222114      2.20265406
  C     -7.94036151      1.01957406      1.04922211
  C     -7.19971237      0.69285808     -0.07680100
  H     -7.89020395      1.71656494      3.08011768
  H     -9.01992438      0.92745650      1.02381210
  H     -7.70997443      0.35114347     -0.96965658
  H     -6.82040053      2.02470196     -5.66724440
  H     -5.42022717      1.93959208      3.11684393
  H     -4.10886051      1.39457283      1.11167113
  P      1.23761621      4.55014197     -0.64312103
  C      1.55221027      6.17641356      0.12638739
  C      2.41148150      6.37763705      1.20902831
  C      2.59048940      7.64945097      1.73263182
  C      1.92396997      8.73570452      1.18265859
  C      1.08137792      8.55008120      0.09464614
  C      0.89856737      7.28031571     -0.42900638
  H      2.06442261      9.72643140      1.59836738
  H      2.94413611      5.54105572      1.64612576
  H      0.24131356      7.13798275     -1.28008158
  H      0.56271724      9.39376783     -0.34628744
  C      2.46906197      4.54300033     -1.98742363
  C      2.03750391      4.32765493     -3.29743317
  C      2.92399697      4.42601864     -4.35871549
  C      4.25457648      4.74351861     -4.12256192
  C      4.69996489      4.94221218     -2.82089600
  C      3.81488935      4.84641811     -1.75939955
  H      4.16462452      5.01861418     -0.74737859
  H      4.94545157      4.83694796     -4.95224002
  H      5.73970699      5.18459139     -2.63417372
  H      0.99548159      4.08960977     -3.48425881
  H      3.25734251      7.79080456      2.57538015
  C      1.85565578      3.34692453      0.57491953
  C      1.42321245      3.42633585      1.90235890
  C      1.74433752      2.43433166      2.81645480
  C      2.47681672      1.32592262      2.41051438
  C      2.89676806      1.22935991      1.09083672
  C      2.59463515      2.23040909      0.18099800
  H      2.72089079      0.54131073      3.11730899
  H      3.46684202      0.36732457      0.76758724
  H      2.93434989      2.14309057     -0.84500213
  H      2.57415846      4.26115224     -5.37134626
  H      1.42313202      2.52738532      3.84742296
  H      0.82776896      4.27303278      2.22311369
  P      0.21535274     -5.38342913      0.49801600
  C     -1.26622084     -5.93598406      1.40198819
  C     -2.01608525     -7.05971626      1.04761874
  C     -3.14004312     -7.41202225      1.78036824
  C     -3.53172012     -6.65078302      2.87252809
  C     -2.79680906     -5.52831171      3.23181310
  C     -1.67678410     -5.17131420      2.49855025
  H     -4.41065921     -6.92920424      3.44189666
  H     -1.72199707     -7.66129952      0.19531834
  H     -1.10960046     -4.29003567      2.77681620
  H     -3.09782380     -4.92661764      4.08188150
  C      1.58950785     -6.11018189      1.44218124
  C      2.83500603     -5.48208034      1.36811181
  C      3.92317223     -5.98037349      2.06530698
  C      3.77858239     -7.11419725      2.85433622
  C      2.54357167     -7.74324889      2.94256586
  C      1.45332916     -7.24728398      2.24381060
  H      0.49065721     -7.73895493      2.32732389
  H      4.62676713     -7.50491470      3.40416294
  H      2.42674295     -8.62585408      3.56129286
  H      2.94436535     -4.59140873      0.75921962
  H     -3.71211390     -8.28705606      1.49442356
  C      0.16997493     -6.31815302     -1.06074180
  C     -0.28241273     -5.65896721     -2.20647496
  C     -0.36552782     -6.32522736     -3.41869625
  C      0.01498493     -7.65831078     -3.50542541
  C      0.48177748     -8.31915341     -2.37655402
  C      0.56009579     -7.65600776     -1.16116211
  H     -0.04656627     -8.17942744     -4.45353402
  H      0.78755355     -9.35684067     -2.44239379
  H      0.93418622     -8.17686675     -0.28702531
  H      4.88228150     -5.47931599      1.99525309
  H     -0.72020439     -5.79994216     -4.29813632
  H     -0.56322783     -4.61261946     -2.14484774
  P     -2.60190650      5.25451067     -0.05520846
  C     -4.39707443      4.89270279     -0.08081738
  C     -5.23512029      5.14105199      1.00927202
  C     -6.58763785      4.84356533      0.93711692
  C     -7.12788420      4.31074954     -0.22502755
  C     -6.31148448      4.08966016     -1.32545801
  C     -4.95863130      4.38244435     -1.25313869
  H     -8.18373344      4.07236040     -0.27494464
  H     -4.83078201      5.56648596      1.92040864
  H     -4.32950487      4.22183031     -2.12245012
  H     -6.72804679      3.68778671     -2.24202803
  C     -2.58957101      7.03684501     -0.44292516
  C     -2.24221104      7.42358563     -1.74030489
  C     -2.24159910      8.76305535     -2.09894239
  C     -2.58502413      9.73103304     -1.16488579
  C     -2.94387824      9.35543679      0.12310210
  C     -2.95350127      8.01722079      0.48389577
  H     -3.24576072      7.73279924      1.48850433
  H     -2.57860616     10.77856166     -1.44198966
  H     -3.22158951     10.10839671      0.85151357
  H     -1.97398709      6.66636090     -2.47019915
  H     -7.22230135      5.02974562      1.79574510
  C     -2.16157343      5.14405511      1.70962573
  C     -2.65525838      4.09347518      2.49078985
  C     -2.19447656      3.88761048      3.78262359
  C     -1.22698075      4.72646043      4.31924351
  C     -0.73456236      5.77937587      3.55932009
  C     -1.19149944      5.98262399      2.26389207
  H     -0.85946439      4.55934851      5.32531636
  H      0.01402926      6.44567429      3.97233621
  H     -0.78860946      6.80098656      1.67837182
  H     -1.97037434      9.05051206     -3.10808339
  H     -2.59547673      3.06974569      4.37087671
  H     -3.42387032      3.44374104      2.09052987
