246
Energy =   -372.44646698 au
 Au      0.37398679     -0.57116146      0.93051390
 Au     -2.00466003      0.23563746     -0.54797373
 Au      2.03700514      1.51323022      0.97178410
 Au      0.72020321      0.74050703      3.17111087
 Au      0.16538487     -0.91576780     -1.83071374
 Au     -1.49418878     -2.30751565     -0.09450421
 Au      1.78627149      0.32345791     -3.54526026
 Au      2.84693521     -0.41244072     -1.27333380
  P      3.31222548      3.37804799      0.19717304
  C      3.63786393      3.44848634     -1.59273044
  C      3.22429223      4.49561337     -2.41694920
  C      3.47372144      4.45544012     -3.78209383
  C      4.12976868      3.36988081     -4.34568486
  C      4.53733391      2.31552980     -3.53828176
  C      4.29692396      2.36079268     -2.17340876
  H      4.32928271      3.34491568     -5.41027829
  H      2.71324008      5.35182914     -1.99260774
  H      4.64093771      1.55089469     -1.54110695
  H      5.06050260      1.46813975     -3.96526154
  C      4.94365839      3.53447979      0.98243225
  C      4.97334001      3.62578897      2.37991879
  C      6.17887468      3.68563841      3.05966454
  C      7.37568359      3.63367380      2.35620658
  C      7.35825953      3.53356033      0.97268731
  C      6.15290619      3.48778088      0.28754493
  H      6.15845034      3.41934525     -0.79385584
  H      8.31937379      3.67115833      2.88723591
  H      8.28883084      3.49189240      0.41848141
  H      4.03958334      3.64917342      2.93248074
  H      3.15887545      5.28336571     -4.40687418
  C      2.45009592      4.93392729      0.56988924
  C      1.12487634      5.03966146      0.13477176
  C      0.37080514      6.16425966      0.42554830
  C      0.92656273      7.19830456      1.16757349
  C      2.24087275      7.10530435      1.60305926
  C      3.00127477      5.98376649      1.30557089
  H      0.33551174      8.07495355      1.40482149
  H      2.68090941      7.91190107      2.17792578
  H      4.02834933      5.92945328      1.64664715
  H      6.18396997      3.76741551      4.14044169
  H     -0.65422430      6.22850467      0.07829373
  H      0.68914448      4.22815967     -0.43831218
  P     -0.83061037     -4.47655710      0.83661990
  C     -2.31078564     -5.40678767      1.36045654
  C     -2.56891956     -6.74036661      1.04216627
  C     -3.72645969     -7.35835880      1.49154997
  C     -4.64633710     -6.65660575      2.25797397
  C     -4.41159569     -5.32310988      2.56441832
  C     -3.25608478     -4.70458144      2.11520744
  H     -5.54913424     -7.14421089      2.60599110
  H     -1.87343366     -7.30122935      0.42962686
  H     -3.08551499     -3.65795900      2.34332631
  H     -5.13065929     -4.76048301      3.14870323
  C      0.26039225     -4.63180157      2.29684959
  C      1.61852249     -4.92778359      2.15494293
  C      2.44187716     -5.02278607      3.26769941
  C      1.92922215     -4.79827375      4.53817727
  C      0.58746257     -4.47185585      4.68808102
  C     -0.23914657     -4.38756846      3.57914158
  H     -1.28632825     -4.14307244      3.71616732
  H      2.57089231     -4.88047400      5.40737310
  H      0.17903490     -4.29192485      5.67600464
  H      2.03609579     -5.09815254      1.16936925
  H     -3.91154475     -8.39493273      1.23487134
  C     -0.00560292     -5.50493425     -0.41646348
  C      0.15218273     -4.98012350     -1.70120081
  C      0.74979305     -5.72260014     -2.70721747
  C      1.20460188     -7.00739167     -2.44216526
  C      1.07324885     -7.53603773     -1.16420548
  C      0.47871497     -6.79222728     -0.15665570
  H      1.66620866     -7.59346779     -3.22794747
  H      1.43867970     -8.53350163     -0.94968400
  H      0.40241972     -7.20849852      0.84122740
  H      3.48799275     -5.27600723      3.13726580
  H      0.86070973     -5.29699969     -3.69813621
  H     -0.19082134     -3.97211735     -1.90963975
  P     -2.85061391      2.44956149     -0.51135041
  C     -4.62036684      2.52114709     -0.90190084
  C     -5.46082501      1.72788112     -0.11081736
  C     -6.81339332      1.63193603     -0.39247648
  C     -7.34609644      2.31323298     -1.48007025
  C     -6.52061690      3.09288321     -2.27756956
  C     -5.16626389      3.19706965     -1.99331263
  H     -8.40257755      2.23254088     -1.70651967
  H     -5.04396110      1.17779743      0.72747814
  H     -4.53388465      3.80828848     -2.62604003
  H     -6.93052981      3.62434697     -3.12853020
  C     -1.97625677      3.58630575     -1.63314373
  C     -0.84108229      3.12612485     -2.30156206
  C     -0.12089584      3.96310373     -3.13985878
  C     -0.52646471      5.27734796     -3.32107396
  C     -1.64285814      5.75462343     -2.64577631
  C     -2.35826760      4.92135647     -1.79928488
  H     -3.21394032      5.31005729     -1.25885075
  H      0.02970373      5.93139058     -3.98229683
  H     -1.95649898      6.78372835     -2.77608936
  H     -0.52314071      2.09835128     -2.16697671
  H     -7.45059079      1.01731541      0.23321387
  C     -2.66365436      3.34670038      1.06510416
  C     -1.37095171      3.42241561      1.59091372
  C     -1.11625390      4.13664199      2.74919431
  C     -2.15924991      4.76354982      3.41901739
  C     -3.45036523      4.67669241      2.91824899
  C     -3.70419002      3.97965809      1.74457509
  H     -1.96304449      5.31491887      4.33129108
  H     -4.26812800      5.16113446      3.43898958
  H     -4.71448049      3.93287439      1.35506015
  H      0.75619533      3.58406588     -3.65275047
  H     -0.10244451      4.20238776      3.12644289
  H     -0.55610160      2.92319467      1.07724941
  P     -3.85396528     -2.84044338     -0.96120709
  C     -4.23782260     -4.59928582     -1.29718543
  C     -5.37677547     -5.26023391     -0.83472247
  C     -5.58016129     -6.60117396     -1.12633398
  C     -4.64727684     -7.30850363     -1.87089383
  C     -3.49389651     -6.67161645     -2.30886325
  C     -3.28924039     -5.33291171     -2.01781059
  H     -4.81125255     -8.35522113     -2.09747860
  H     -6.10913290     -4.73561554     -0.23336064
  H     -2.37261531     -4.85395820     -2.34357042
  H     -2.74707121     -7.21856618     -2.87291382
  C     -4.25339881     -2.02502039     -2.55327748
  C     -5.13653622     -0.94583722     -2.63839453
  C     -5.38538765     -0.32798593     -3.85515532
  C     -4.73513510     -0.75682453     -5.00435203
  C     -3.81951633     -1.79729290     -4.92460428
  C     -3.57938387     -2.42321673     -3.71216900
  H     -2.86047014     -3.23334188     -3.67060960
  H     -4.93110007     -0.27399580     -5.95431521
  H     -3.28875589     -2.12531011     -5.81144278
  H     -5.64044236     -0.58134269     -1.75086890
  H     -6.47374476     -7.09543066     -0.76311290
  C     -5.16963151     -2.24808826      0.15203539
  C     -4.79019171     -1.68163438      1.37104090
  C     -5.73927071     -1.22934717      2.27473046
  C     -7.08929448     -1.32200428      1.96553164
  C     -7.48232823     -1.86093122      0.74722956
  C     -6.53380811     -2.32130802     -0.15347952
  H     -7.83370928     -0.97225454      2.67098676
  H     -8.53473425     -1.92621167      0.49691001
  H     -6.85497493     -2.72886761     -1.10506467
  H     -6.09275439      0.49254890     -3.90122579
  H     -5.42332196     -0.80871561      3.22244099
  H     -3.73564393     -1.59359811      1.61151540
  P      4.40466928     -1.23760741      0.36696585
  C      6.11244288     -0.65959231      0.11678333
  C      7.05149958     -0.53430418      1.14420308
  C      8.32571054     -0.05887277      0.87485147
  C      8.68514080      0.28949574     -0.42002307
  C      7.76844911      0.14701836     -1.45289582
  C      6.49316824     -0.32432580     -1.18570036
  H      9.68060839      0.66523728     -0.62486726
  H      6.78856970     -0.80742840      2.15954978
  H      5.78125071     -0.44347087     -1.99564129
  H      8.04550342      0.40573454     -2.46826486
  C      4.55024487     -3.05252992      0.33366754
  C      3.82330946     -3.77657949     -0.61194314
  C      3.92996306     -5.15806578     -0.67720890
  C      4.76065900     -5.83305690      0.20650450
  C      5.48720008     -5.12234472      1.15415545
  C      5.38748605     -3.74174326      1.21648919
  H      5.96202307     -3.19309565      1.95444393
  H      4.84438782     -6.91226262      0.15574277
  H      6.14073476     -5.64561009      1.84234001
  H      3.16926980     -3.25177850     -1.30021673
  H      9.04140114      0.03930512      1.68286737
  C      4.06039136     -0.88244569      2.11883170
  C      4.46446826      0.32557408      2.69522162
  C      4.13193855      0.63065948      4.00697424
  C      3.36281511     -0.25008194      4.75556755
  C      2.91941584     -1.43496906      4.17967944
  C      3.26594594     -1.74737682      2.87366555
  H      3.11085773     -0.01546973      5.78268839
  H      2.30966437     -2.12327588      4.75378379
  H      2.91965357     -2.67598544      2.43563563
  H      3.36657284     -5.70704391     -1.42287035
  H      4.47810810      1.55852769      4.44690601
  H      5.06152756      1.02227469      2.11990931
  P     -0.05496733      1.36002905      5.31656601
  C      0.46492712      0.37526731      6.75170976
  C      1.26973018      0.88007396      7.77452939
  C      1.69454483      0.05137479      8.80298894
  C      1.32871289     -1.28699578      8.81912204
  C      0.53588167     -1.80093085      7.80041702
  C      0.11202546     -0.97893596      6.76973913
  H      1.66184476     -1.93148863      9.62397248
  H      1.55833439      1.92494666      7.76907054
  H     -0.50237629     -1.38290236      5.97113381
  H      0.24889559     -2.84638520      7.80859834
  C     -1.87155998      1.33241060      5.39636670
  C     -2.57963470      1.39010994      4.19446751
  C     -3.96446604      1.42670964      4.18755454
  C     -4.66423213      1.38485305      5.38607481
  C     -3.97235723      1.29920256      6.58710941
  C     -2.58601713      1.27456328      6.59611966
  H     -2.05466945      1.20134628      7.53820773
  H     -5.74756621      1.41427827      5.38380082
  H     -4.51570784      1.25539121      7.52383263
  H     -2.03414329      1.41157648      3.25709104
  H      2.31421203      0.45528075      9.59513475
  C      0.39739268      3.07795756      5.71049325
  C      1.53539332      3.60271697      5.09070271
  C      1.91475236      4.91897032      5.30061002
  C      1.15693550      5.73293120      6.13173725
  C      0.02401322      5.22387076      6.75266541
  C     -0.35632574      3.90664518      6.54434895
  H      1.44721120      6.76442767      6.29288565
  H     -0.56974020      5.85674465      7.40191186
  H     -1.24746011      3.52251329      7.02739094
  H     -4.49545722      1.49573092      3.24439978
  H      2.79822516      5.31049363      4.80886250
  H      2.12286360      2.96842211      4.43452984
  P      0.78986246      0.72651913     -5.70272874
  C      1.66087466      1.51075481     -7.09201932
  C      2.02365667      0.81492980     -8.24648950
  C      2.73940751      1.45011823     -9.25051377
  C      3.10508343      2.78180737     -9.11488988
  C      2.75844067      3.48136256     -7.96588395
  C      2.04881705      2.84917104     -6.95751412
  H      3.66245798      3.27525194     -9.90224571
  H      1.74105544     -0.22508042     -8.36251167
  H      1.78709246      3.39465509     -6.05636526
  H      3.04226091      4.52148778     -7.85382016
  C     -0.79319092      1.62506211     -5.57465993
  C     -1.69117089      1.18869673     -4.59596525
  C     -2.89789598      1.83804910     -4.40184397
  C     -3.23542666      2.93099106     -5.18945821
  C     -2.35699425      3.36880329     -6.16925843
  C     -1.14401233      2.72320837     -6.36074483
  H     -0.47115829      3.07600894     -7.13323616
  H     -4.18167010      3.43767193     -5.04040026
  H     -2.61502740      4.21844954     -6.79063097
  H     -1.43893927      0.33003706     -3.98095196
  H      3.01139570      0.90015904    -10.14393424
  C      0.22632353     -0.88689439     -6.32968811
  C      0.83426501     -2.04905107     -5.85152655
  C      0.39908597     -3.29822579     -6.26522498
  C     -0.65314996     -3.40382496     -7.16367126
  C     -1.26430595     -2.25513694     -7.65090372
  C     -0.83007521     -1.00503506     -7.23816443
  H     -0.99697936     -4.37979923     -7.48552086
  H     -2.08082480     -2.33348597     -8.35926667
  H     -1.31587987     -0.11343614     -7.61846025
  H     -3.57512449      1.49205187     -3.62940217
  H      0.88224847     -4.19072707     -5.88357125
  H      1.65554677     -1.96946151     -5.14739129
