246
Energy =   -372.43667320 au
 Au     -0.63523234      2.20972896     -1.40428822
 Au      0.54411697      0.96558651      0.79117306
 Au     -0.90915131     -1.41671910      1.66477811
 Au      1.41863893      0.46260386     -1.79434817
 Au     -2.04049978     -2.95863630     -0.58351648
 Au     -3.31543826     -0.71990596      0.24082391
 Au     -1.06188780     -0.57214004     -1.19975561
 Au      1.64975636     -1.45024279      1.93634236
  P     -2.27664499      3.83180017     -1.98596605
  C     -2.46146412      4.20216377     -3.75828875
  C     -3.05190083      5.37792241     -4.22866099
  C     -3.24700320      5.56692219     -5.58781676
  C     -2.87612558      4.58074351     -6.49201250
  C     -2.30659047      3.40079683     -6.03319006
  C     -2.09713116      3.21350338     -4.67526067
  H     -3.03578528      4.72939390     -7.55336687
  H     -3.36444000      6.14542436     -3.52975301
  H     -1.64760574      2.29249403     -4.31753654
  H     -2.02573324      2.62283201     -6.73391999
  C     -2.05765011      5.42230224     -1.14404389
  C     -2.50104910      5.57920358      0.17291004
  C     -2.25524550      6.75571928      0.86302252
  C     -1.54310171      7.78339587      0.25913840
  C     -1.06843112      7.62554558     -1.03608932
  C     -1.31692536      6.45170677     -1.73123623
  H     -0.93229981      6.33231949     -2.73795224
  H     -1.35292642      8.70301579      0.79960666
  H     -0.50352241      8.42013918     -1.50961106
  H     -3.04338731      4.77390736      0.65653921
  H     -3.69936326      6.48616644     -5.94120457
  C     -3.98595196      3.30331715     -1.63572086
  C     -4.28642181      1.94747564     -1.78321074
  C     -5.58991388      1.49284851     -1.66563971
  C     -6.61492454      2.39000955     -1.39848355
  C     -6.32833694      3.74012699     -1.25074908
  C     -5.02502498      4.19809955     -1.37303437
  H     -7.63543497      2.03742568     -1.30707556
  H     -7.12575530      4.44467374     -1.04520811
  H     -4.81681504      5.25689660     -1.27045166
  H     -2.62343578      6.87227017      1.87585427
  H     -5.80553743      0.43825902     -1.79300119
  H     -3.49051846      1.24695470     -2.01168121
  P     -5.16018041     -0.36677202      1.69265556
  C     -6.49253194     -1.52510178      1.25590887
  C     -7.48860773     -1.92876557      2.14984956
  C     -8.47709305     -2.81346053      1.74720491
  C     -8.48248568     -3.31614062      0.45279155
  C     -7.49013962     -2.93496289     -0.43975678
  C     -6.50438076     -2.04752730     -0.03960576
  H     -9.25532748     -4.00930797      0.14251221
  H     -7.48706376     -1.55888867      3.16855441
  H     -5.72739754     -1.75505630     -0.73821027
  H     -7.48152076     -3.33077604     -1.44867298
  C     -5.94119401      1.27632312      1.77360772
  C     -5.09179738      2.38367186      1.85141804
  C     -5.61324532      3.66190343      1.96508885
  C     -6.98859382      3.85406512      1.99111757
  C     -7.83999987      2.76242964      1.89371982
  C     -7.32217764      1.48009776      1.78407675
  H     -7.99562406      0.63444834      1.70659496
  H     -7.39463664      4.85453578      2.08206628
  H     -8.91387341      2.90768278      1.90508783
  H     -4.01655718      2.23650346      1.82541153
  H     -9.24574261     -3.11327691      2.44994210
  C     -4.82855550     -0.72845921      3.44711980
  C     -3.71703835     -1.50227278      3.78012133
  C     -3.44569157     -1.83476269      5.09730330
  C     -4.28958877     -1.39493741      6.10834133
  C     -5.39304254     -0.61211784      5.79454783
  C     -5.66100352     -0.27586248      4.47574437
  H     -4.08302738     -1.65435754      7.13986207
  H     -6.04862637     -0.25713336      6.58109682
  H     -6.51314788      0.35361531      4.24621007
  H     -4.94437989      4.51207386      2.03342738
  H     -2.57475771     -2.43532200      5.33288244
  H     -3.05246509     -1.84434922      2.99378593
  P     -2.35307225     -5.18598674      0.18251457
  C     -1.09514443     -5.65883482      1.40885484
  C     -1.33634071     -6.60100631      2.41356916
  C     -0.35445120     -6.90061641      3.34568290
  C      0.87995642     -6.26721023      3.29100377
  C      1.13242481     -5.33537385      2.29439044
  C      0.15242789     -5.03413399      1.36233713
  H      1.64430436     -6.49598890      4.02487176
  H     -2.30081860     -7.09240073      2.47200516
  H      0.35117207     -4.29953996      0.58990042
  H      2.09466739     -4.83840755      2.24507173
  C     -2.43319222     -6.55173562     -1.01409251
  C     -3.10139307     -6.31768388     -2.22062945
  C     -3.19655055     -7.31609128     -3.17746341
  C     -2.61442448     -8.55601388     -2.94677976
  C     -1.93807471     -8.79300324     -1.75807600
  C     -1.84608436     -7.79937965     -0.79536452
  H     -1.31523521     -7.99443158      0.12934556
  H     -2.68464519     -9.33549657     -3.69616781
  H     -1.47877352     -9.75785710     -1.57718209
  H     -3.54121823     -5.34347104     -2.40844461
  H     -0.55650892     -7.63029674      4.12114260
  C     -3.90877675     -5.29884939      1.12086079
  C     -3.97440083     -4.66692322      2.36689839
  C     -5.15726688     -4.64475802      3.08636960
  C     -6.29649338     -5.24628032      2.56758457
  C     -6.24602636     -5.86548693      1.32682106
  C     -5.06251356     -5.88947916      0.60390046
  H     -7.22293176     -5.22895181      3.12937013
  H     -7.13369780     -6.33337077      0.91702414
  H     -5.03520522     -6.37747852     -0.36371636
  H     -3.72291632     -7.12456907     -4.10530995
  H     -5.18951115     -4.15521256      4.05311815
  H     -3.08488384     -4.19963174      2.77578344
  P      3.88216307     -2.20840281      2.22088462
  C      5.30602387     -1.08100095      2.37848357
  C      6.25356597     -1.18190094      3.39916943
  C      7.32642511     -0.30344609      3.44719308
  C      7.47004753      0.67861003      2.47731403
  C      6.52976598      0.79039947      1.46145393
  C      5.44918437     -0.07542036      1.41836359
  H      8.31227245      1.35950207      2.51324772
  H      6.15316370     -1.95200822      4.15526017
  H      4.70475892      0.02720494      0.63494252
  H      6.63690926      1.55840473      0.70405612
  C      4.43824024     -3.38466547      0.94947381
  C      3.49892956     -3.86381250      0.03619355
  C      3.84953490     -4.80538248     -0.91827797
  C      5.15273398     -5.27944353     -0.97308329
  C      6.10336082     -4.79672208     -0.08239795
  C      5.75383992     -3.85160335      0.86999318
  H      6.50515755     -3.47007360      1.55227941
  H      5.43102724     -6.01775505     -1.71583144
  H      7.12420219     -5.15753316     -0.13057596
  H      2.48437779     -3.48321111      0.07816148
  H      8.05570215     -0.39131664      4.24407513
  C      3.87824179     -3.17993563      3.75906900
  C      3.15603553     -2.65335256      4.83505796
  C      3.05402773     -3.34774109      6.02874590
  C      3.65990912     -4.59032882      6.16189229
  C      4.36849438     -5.13007416      5.09759198
  C      4.47885617     -4.43226096      3.90377313
  H      3.57484419     -5.13926891      7.09226904
  H      4.83928350     -6.10150649      5.19462290
  H      5.03142046     -4.86936464      3.08029283
  H      3.10551083     -5.16529399     -1.62003483
  H      2.49363657     -2.92246674      6.85340358
  H      2.66834955     -1.68992021      4.72794349
  P      2.09907095     -1.21159070     -3.45758893
  C      3.77548649     -1.88574053     -3.22911933
  C      4.33433104     -2.82704648     -4.09985755
  C      5.62271489     -3.29305706     -3.89218593
  C      6.36472291     -2.84039652     -2.80837935
  C      5.80734744     -1.93297369     -1.91895875
  C      4.52024527     -1.46269755     -2.12842769
  H      7.37283959     -3.20499028     -2.65050373
  H      3.75446236     -3.19874978     -4.93731350
  H      4.08082390     -0.75628590     -1.43179665
  H      6.37238658     -1.59316909     -1.05829701
  C      2.08052185     -0.46203505     -5.11499592
  C      0.88183458      0.14487250     -5.51148147
  C      0.78397060      0.78123772     -6.73762246
  C      1.88391035      0.83196713     -7.58437719
  C      3.07909378      0.24428296     -7.19687519
  C      3.18148774     -0.39345043     -5.96853505
  H      4.12632325     -0.83521300     -5.67478000
  H      1.80848725      1.33096260     -8.54317107
  H      3.94074968      0.28137102     -7.85329648
  H      0.02073690      0.10695605     -4.85130330
  H      6.04976270     -4.01535975     -4.57804673
  C      1.12755870     -2.74417537     -3.67828116
  C      0.83010089     -3.48922916     -2.53392624
  C      0.15809651     -4.69682127     -2.63143088
  C     -0.25553902     -5.16339700     -3.87298806
  C      0.01043410     -4.41857150     -5.01197753
  C      0.70539806     -3.22066639     -4.91933279
  H     -0.78676080     -6.10488143     -3.94876164
  H     -0.31561588     -4.77434429     -5.98242787
  H      0.91845353     -2.65465999     -5.81849440
  H     -0.15250378      1.23989926     -7.03382508
  H     -0.03624991     -5.27942912     -1.73838497
  H      1.13761092     -3.11936292     -1.56186467
  P      0.46906550      2.52781462      2.67724971
  C     -1.13784294      2.89212698      3.45513192
  C     -1.83157654      1.84510934      4.07099296
  C     -3.04214471      2.08088700      4.70111320
  C     -3.59292487      3.35603207      4.70304986
  C     -2.92733139      4.39517333      4.06827065
  C     -1.70789794      4.16626884      3.44834532
  H     -4.53999108      3.53683360      5.19751439
  H     -1.40949842      0.84512873      4.06866096
  H     -1.18783389      4.98743191      2.96899938
  H     -3.35038326      5.39319794      4.06683193
  C      1.11622033      4.18367881      2.26513029
  C      0.96090825      4.65823326      0.96159064
  C      1.44753773      5.90148467      0.59405887
  C      2.10838447      6.69026606      1.52537825
  C      2.27101491      6.23123146      2.82530406
  C      1.77830354      4.98940927      3.19571237
  H      1.91101987      4.64235260      4.21401410
  H      2.49668852      7.66008973      1.23765084
  H      2.78524419      6.84304820      3.55729957
  H      0.45432055      4.04234737      0.22479800
  H     -3.55717820      1.26871500      5.19913523
  C      1.49552266      2.01180566      4.09387232
  C      2.65073501      1.26725070      3.84265772
  C      3.48985797      0.88500479      4.87767724
  C      3.17760442      1.22648109      6.18656847
  C      2.02531067      1.95298656      6.45204866
  C      1.19236226      2.34845958      5.41613216
  H      3.83031971      0.92412262      6.99692123
  H      1.77356046      2.21926589      7.47201738
  H      0.29759963      2.91831601      5.63791785
  H      1.30963755      6.25296876     -0.42179238
  H      4.39078576      0.32271652      4.66026266
  H      2.89530614      0.98326174      2.82532414
  P      3.32460611      2.21686174     -2.03858146
  C      2.49183028      3.63273779     -2.84153492
  C      2.72486839      4.96807672     -2.51016729
  C      2.08057665      5.98868107     -3.19427965
  C      1.20469412      5.69376014     -4.23026573
  C      0.95811466      4.36911244     -4.56455450
  C      1.58116541      3.34788277     -3.86467133
  H      0.72154227      6.49242696     -4.78069633
  H      3.41836377      5.21761676     -1.71583371
  H      1.37320407      2.31522548     -4.12459967
  H      0.27967813      4.12915866     -5.37453173
  C      4.69577010      1.88090161     -3.20417014
  C      5.86395885      1.28250332     -2.71877373
  C      6.89805919      0.94600619     -3.57688931
  C      6.78543172      1.20044380     -4.93695540
  C      5.63314226      1.79538296     -5.43038279
  C      4.59287597      2.12589249     -4.57450833
  H      3.69986941      2.58733982     -4.97984165
  H      7.59451008      0.93982160     -5.60877716
  H      5.53997676      2.00591832     -6.48956504
  H      5.96737144      1.08842653     -1.65681502
  H      2.27639237      7.02023663     -2.92508007
  C      4.21711437      3.00790924     -0.64893819
  C      3.76108958      2.81459363      0.65400869
  C      4.39551327      3.41649125      1.72974887
  C      5.50241460      4.22511032      1.51832099
  C      5.97394467      4.42251663      0.22696149
  C      5.34058429      3.81952028     -0.84824350
  H      5.99877300      4.69664516      2.35818600
  H      6.84051419      5.05018263      0.05506636
  H      5.72338690      3.97524020     -1.85023681
  H      7.79491493      0.48404089     -3.18048520
  H      4.02594669      3.25319678      2.73545168
  H      2.89509727      2.18324101      0.82405913
