246
Energy =   -372.45103744 au
 Au     -0.71331003     -2.29959852      2.96336934
 Au      2.06215064     -1.43534535     -1.26353191
 Au      0.72445552      0.69948596     -0.55728254
 Au      0.77162694      0.01955306     -3.08307940
 Au     -1.09506408      0.00717519      1.62771921
 Au     -1.65992949      2.04994459     -0.01140985
 Au      0.51582642      2.17304120      1.73657243
 Au     -2.91782090     -1.93572373      1.70353277
  P      2.79075475     -3.67605847     -1.24505047
  C      3.86892795     -4.40314479      0.02780156
  C      3.48406262     -5.46315184      0.84879561
  C      4.35819196     -5.96066417      1.80381256
  C      5.62168486     -5.40729939      1.95185163
  C      6.01266509     -4.34874217      1.14154122
  C      5.14102441     -3.84514513      0.19042670
  H      6.30243948     -5.79962478      2.69808170
  H      2.50005441     -5.90396729      0.73884302
  H      5.44544318     -3.01350985     -0.43691788
  H      6.99837058     -3.91234427      1.25384215
  C      3.56421376     -4.20636099     -2.80239769
  C      3.52479499     -3.34188616     -3.89864978
  C      4.06439110     -3.71809500     -5.11816263
  C      4.66453639     -4.96212856     -5.25544803
  C      4.73483522     -5.82030927     -4.16594212
  C      4.19260152     -5.44733490     -2.94597126
  H      4.26730454     -6.11684767     -2.09641911
  H      5.08698655     -5.25869409     -6.20824693
  H      5.21686984     -6.78587804     -4.26543688
  H      3.07282874     -2.36138831     -3.78999025
  H      4.04926628     -6.78716203      2.43352565
  C      1.23420246     -4.61929441     -1.14492412
  C      0.15814552     -4.01497220     -0.48943454
  C     -1.07318139     -4.64423530     -0.40768732
  C     -1.25120455     -5.89662140     -0.97857452
  C     -0.19061034     -6.51095666     -1.63116196
  C      1.04123079     -5.87805351     -1.71848036
  H     -2.21426000     -6.38985588     -0.91964290
  H     -0.32326521     -7.48853405     -2.07988920
  H      1.85596354     -6.36595093     -2.24073992
  H      4.01839509     -3.03666918     -5.96045760
  H     -1.89700765     -4.14957063      0.09627930
  H      0.28928454     -3.03553321     -0.04187594
  P      2.40248608      3.67600382      1.27374918
  C      1.85304085      5.40399377      1.11846657
  C      2.68251045      6.49139511      1.41043169
  C      2.21332432      7.78879249      1.27618188
  C      0.91367474      8.02131659      0.84738612
  C      0.08219122      6.95039119      0.54989720
  C      0.54733396      5.65215604      0.68626977
  H      0.54747418      9.03619004      0.74638733
  H      3.69748802      6.31946918      1.74974338
  H     -0.10824867      4.81748973      0.45701747
  H     -0.93376980      7.12711378      0.21732175
  C      3.36734016      3.39400962     -0.25228615
  C      3.74134392      2.08351488     -0.55983189
  C      4.44670641      1.79303195     -1.71626630
  C      4.79113950      2.81533630     -2.59021034
  C      4.42626141      4.12304511     -2.29764120
  C      3.71912172      4.41294396     -1.13869023
  H      3.43964567      5.43837473     -0.92732800
  H      5.34243935      2.59404842     -3.49665168
  H      4.69534773      4.92567399     -2.97440318
  H      3.47174399      1.28268861      0.11846169
  H      2.86651883      8.62178877      1.50840594
  C      3.66518311      3.73798521      2.58541604
  C      3.35120953      4.38189455      3.78768679
  C      4.24993462      4.38687887      4.84134128
  C      5.46909544      3.73293286      4.71987052
  C      5.78318668      3.07423259      3.53942324
  C      4.88891880      3.07387096      2.47942911
  H      6.17082646      3.73432527      5.54544699
  H      6.73152126      2.55885251      3.43958327
  H      5.15076952      2.56019386      1.56139536
  H      4.72465754      0.76787746     -1.93403768
  H      3.99451950      4.89763995      5.76256059
  H      2.39723969      4.88715295      3.89470502
  P     -4.84259379     -1.71077442      0.31797504
  C     -5.35058320      0.03834261      0.23117007
  C     -6.25842749      0.50890967     -0.72143296
  C     -6.60608634      1.85021469     -0.75738952
  C     -6.04591453      2.74466788      0.14530360
  C     -5.14348809      2.28943584      1.09638969
  C     -4.80256428      0.94565757      1.13852466
  H     -6.31552039      3.79373680      0.10923257
  H     -6.69247191     -0.17871458     -1.43884573
  H     -4.11243190      0.59042184      1.89446626
  H     -4.71247801      2.97549081      1.81657647
  C     -6.38968935     -2.64371612      0.50330466
  C     -6.36918202     -4.02181923      0.25721947
  C     -7.50524292     -4.78801049      0.45917057
  C     -8.67109937     -4.19501980      0.92656264
  C     -8.69488879     -2.83385114      1.19588646
  C     -7.56170583     -2.06111390      0.99125047
  H     -7.58979076     -0.99936015      1.20636168
  H     -9.55849786     -4.79596037      1.08615850
  H     -9.59988859     -2.36886767      1.56854305
  H     -5.45691034     -4.49076393     -0.09902761
  H     -7.31416327      2.20118677     -1.49913546
  C     -4.31013210     -2.03187877     -1.39644306
  C     -2.97834629     -1.75353859     -1.71433070
  C     -2.49398512     -1.96519269     -2.99355326
  C     -3.33155022     -2.46438792     -3.98192539
  C     -4.65688023     -2.74711311     -3.67905827
  C     -5.14478148     -2.53153467     -2.39753890
  H     -2.95225110     -2.63693738     -4.98239936
  H     -5.31554661     -3.14107253     -4.44424426
  H     -6.18060005     -2.75967604     -2.17482355
  H     -7.48003593     -5.85227511      0.25369166
  H     -1.45530890     -1.74687971     -3.21421300
  H     -2.31420961     -1.37162608     -0.94661387
  P      0.00804744      2.35375115      4.21075655
  C     -1.21515811      1.12879477      4.79158113
  C     -0.85622971     -0.03762940      5.46834588
  C     -1.81191408     -0.99753517      5.77458325
  C     -3.13822265     -0.80598436      5.41040166
  C     -3.50783289      0.35288787      4.73878464
  C     -2.55405122      1.30769302      4.42440776
  H     -3.88252137     -1.55486903      5.65320494
  H      0.17437655     -0.19695835      5.76367367
  H     -2.84685502      2.20789050      3.89402650
  H     -4.54295270      0.51259922      4.45989651
  C     -0.63237477      3.91726227      4.89316233
  C     -0.43935967      5.08206052      4.14652965
  C     -0.89905395      6.30463755      4.60929903
  C     -1.56681639      6.37748612      5.82422743
  C     -1.78021698      5.22388375      6.56738048
  C     -1.32053659      3.99953353      6.10738304
  H     -1.50633634      3.10202700      6.68644564
  H     -1.92817967      7.33185655      6.18872330
  H     -2.31056586      5.27669377      7.51111353
  H      0.06711446      5.02348888      3.18900158
  H     -1.51835177     -1.89291800      6.31026722
  C      1.49481217      1.95931264      5.19165357
  C      2.49248007      1.20676789      4.56589885
  C      3.66057127      0.87901114      5.23597690
  C      3.84860061      1.30134548      6.54597566
  C      2.86596166      2.05215123      7.17742779
  C      1.69828397      2.38297875      6.50654917
  H      4.76385875      1.05238131      7.06983832
  H      3.01187399      2.38825881      8.19736497
  H      0.94390045      2.97923998      7.00667775
  H     -0.73932558      7.19889740      4.01745572
  H      4.43079173      0.30795204      4.73007278
  H      2.35138276      0.88229209      3.53969665
  P      1.17452838     -3.21420863      4.09248696
  C      1.32429707     -5.00960682      3.83790614
  C      2.09398393     -5.84293961      4.65364387
  C      2.16119080     -7.20422036      4.39830574
  C      1.46380284     -7.75254154      3.32889633
  C      0.69448726     -6.93414620      2.51257754
  C      0.62491143     -5.57355337      2.76868054
  H      1.51537031     -8.81767707      3.13663864
  H      2.63504553     -5.42745869      5.49617367
  H      0.01797635     -4.93536636      2.13511763
  H      0.14170758     -7.35472633      1.68008864
  C      1.24647775     -3.00666175      5.89575474
  C      1.96474559     -1.96261445      6.48446544
  C      1.89706751     -1.74264450      7.85184284
  C      1.10462520     -2.55508835      8.65057745
  C      0.37606748     -3.58842320      8.07563447
  C      0.43797994     -3.80883083      6.70856446
  H     -0.13819775     -4.61404626      6.26565736
  H      1.05252400     -2.38287739      9.71908632
  H     -0.24661903     -4.22429458      8.69413365
  H      2.58823413     -1.32292100      5.87052815
  H      2.75694353     -7.84163126      5.04122606
  C      2.76852249     -2.54836567      3.50744607
  C      2.76569450     -1.67708615      2.41802043
  C      3.94558834     -1.11546379      1.95630873
  C      5.14855853     -1.41100845      2.58133621
  C      5.16662567     -2.28713440      3.65956566
  C      3.98807968     -2.85561439      4.11681457
  H      6.07004652     -0.96508469      2.22604932
  H      6.10433075     -2.52917011      4.14592895
  H      4.01444988     -3.53791542      4.95864803
  H      2.46516291     -0.93000621      8.29075434
  H      3.92359051     -0.44242025      1.10753990
  H      1.82728747     -1.43445120      1.93125348
  P      0.48663899     -0.39814473     -5.38800249
  C     -0.65691836      0.58570256     -6.40524895
  C     -0.27763312      1.23892319     -7.57862797
  C     -1.20271372      1.98719787     -8.29286517
  C     -2.51209481      2.09463092     -7.84425989
  C     -2.89682984      1.45524789     -6.67217181
  C     -1.97506332      0.71094875     -5.95500390
  H     -3.23250213      2.67767684     -8.40567660
  H      0.74258851      1.16013549     -7.93611301
  H     -2.27593010      0.21838900     -5.03583277
  H     -3.91699885      1.53800261     -6.31438595
  C     -0.04808842     -2.11063926     -5.69981995
  C      0.23910177     -3.08601228     -4.74163390
  C     -0.13714012     -4.40504442     -4.93490437
  C     -0.81636417     -4.77007423     -6.08930244
  C     -1.11683431     -3.80964242     -7.04584056
  C     -0.73735547     -2.48920430     -6.85517528
  H     -0.98322609     -1.74624165     -7.60516040
  H     -1.11520992     -5.80057524     -6.24077932
  H     -1.65037706     -4.08862183     -7.94699201
  H      0.75934751     -2.80524164     -3.83234997
  H     -0.89828248      2.48572567     -9.20573213
  C      2.10130683     -0.28551541     -6.21284727
  C      3.05258004      0.57876178     -5.66499748
  C      4.31461842      0.68882853     -6.22580647
  C      4.64703847     -0.07145381     -7.33883321
  C      3.71223599     -0.93885259     -7.88902016
  C      2.44673639     -1.04724446     -7.33223282
  H      5.63561089      0.00865364     -7.77525012
  H      3.96902736     -1.53464668     -8.75715792
  H      1.72480198     -1.73055836     -7.76497813
  H      0.09542294     -5.14668319     -4.17882612
  H      5.04155980      1.36465112     -5.78959985
  H      2.79608409      1.16531189     -4.78838308
  P     -2.47616971      3.41437595     -1.77798735
  C     -3.90435388      2.81168263     -2.73181304
  C     -4.93320968      3.63390614     -3.19421316
  C     -5.96817482      3.10312424     -3.95038602
  C     -5.98921405      1.74863807     -4.25335626
  C     -4.97724421      0.91938880     -3.78516068
  C     -3.94533516      1.44574557     -3.02468884
  H     -6.79640388      1.33639755     -4.84707033
  H     -4.92638230      4.69273194     -2.96291025
  H     -3.16181999      0.79487881     -2.64962312
  H     -4.99618448     -0.14046096     -4.01017531
  C     -1.20592258      3.58905567     -3.07612039
  C      0.14125413      3.51475653     -2.71475558
  C      1.13962817      3.60435620     -3.67226842
  C      0.80801698      3.79205334     -5.00734089
  C     -0.52572354      3.88917435     -5.37661141
  C     -1.52622984      3.77733406     -4.42290732
  H     -2.56421551      3.82732477     -4.73124442
  H      1.58785672      3.86300801     -5.75645014
  H     -0.79205122      4.04180388     -6.41603473
  H      0.41059179      3.38879127     -1.67212468
  H     -6.75920340      3.75250260     -4.30674442
  C     -2.88845945      5.12237116     -1.31545537
  C     -3.24870382      5.37135202      0.01103139
  C     -3.59574928      6.64912544      0.42127379
  C     -3.57842090      7.69759349     -0.48966740
  C     -3.20528292      7.46470738     -1.80713630
  C     -2.86047937      6.18721338     -2.22030031
  H     -3.85045563      8.69700959     -0.17150362
  H     -3.18254100      8.28258952     -2.51780572
  H     -2.56125085      6.01619905     -3.24823487
  H      2.17874818      3.53586526     -3.37328579
  H     -3.87731885      6.82664846      1.45273860
  H     -3.25181665      4.55374674      0.72422610
