#B3LYP/6-31+G(d) OPT FREQ

246, Energy =   -372.42994500 au

0 1
 Au     -3.41047935      0.86119423      3.11889044
 Au      0.00353987      3.13362906      0.30116014
 Au      1.58395800     -1.23685957     -0.44800159
 Au     -1.66093495     -1.00972784      2.88794070
 Au     -0.82319434     -1.59860964     -1.62622745
 Au     -0.42666814      0.34403084      0.19117406
 Au     -2.50930700      2.12211665      0.66661426
 Au     -0.66323512      1.74857696      2.61779106
  P      3.92646895     -1.57265558     -0.29616436
  C      4.80035722      0.01745913     -0.14149209
  C      6.09171141      0.11576451      0.38802856
  C      6.73469957      1.34282129      0.45064257
  C      6.10506518      2.48572905     -0.02382290
  C      4.82121171      2.40087333     -0.54257918
  C      4.16917734      1.17908207     -0.58713397
  H      6.61101354      3.44328381      0.01633485
  H      6.59342037     -0.77278999      0.75436705
  H      3.15563501      1.12046375     -0.96771138
  H      4.32431182      3.28947790     -0.91363762
  C      4.75830607     -2.39636482     -1.69172844
  C      4.17015376     -3.55648939     -2.20393177
  C      4.75159843     -4.23766895     -3.26085047
  C      5.91551712     -3.75377506     -3.84336279
  C      6.49664455     -2.59041626     -3.35837541
  C      5.92718749     -1.91731788     -2.28760371
  H      6.39662620     -1.01407501     -1.91598157
  H      6.36699889     -4.28154563     -4.67500066
  H      7.40318412     -2.20556261     -3.81083077
  H      3.24899905     -3.92512404     -1.76720490
  H      7.73402625      1.40457958      0.86541174
  C      4.51920006     -2.45814511      1.18011378
  C      3.92049767     -2.14175059      2.40247125
  C      4.37261418     -2.71699611      3.57906169
  C      5.41318085     -3.63656566      3.54764001
  C      5.99643807     -3.97851105      2.33524472
  C      5.55766865     -3.39060536      1.15768589
  H      5.76525794     -4.08857519      4.46734020
  H      6.80346307     -4.70121066      2.30526915
  H      6.02465901     -3.65709739      0.21664920
  H      4.29510684     -5.14859964     -3.63035487
  H      3.90988387     -2.45070884      4.52252902
  H      3.09461304     -1.43783553      2.42604638
  P     -4.71199521      2.07882482     -0.25362113
  C     -5.27864618      0.34869717     -0.16250173
  C     -6.63056002     -0.00224403     -0.14233369
  C     -7.01029071     -1.32605673      0.01816428
  C     -6.05065332     -2.31683093      0.17608151
  C     -4.70369147     -1.98284742      0.14681929
  C     -4.32479296     -0.66280745     -0.03208427
  H     -6.35143926     -3.34708374      0.32629700
  H     -7.38932942      0.76562855     -0.24199661
  H     -3.27149466     -0.40943236     -0.06198078
  H     -3.94464281     -2.74674978      0.27278339
  C     -4.87980790      2.53771529     -2.00259605
  C     -4.86155091      3.89042895     -2.36046887
  C     -4.87930818      4.26280629     -3.69524745
  C     -4.90331770      3.29358639     -4.69006347
  C     -4.91251069      1.94950182     -4.34473895
  C     -4.89391658      1.57271656     -3.01067202
  H     -4.89820161      0.52233739     -2.74501878
  H     -4.91481398      3.58664168     -5.73318976
  H     -4.93609740      1.18823488     -5.11614392
  H     -4.83778082      4.65089261     -1.58714718
  H     -8.06297208     -1.58326566      0.03389680
  C     -6.01567907      2.99871552      0.61404261
  C     -5.88380299      3.19508366      1.99033781
  C     -6.86257939      3.85697067      2.71157277
  C     -7.98929734      4.34351914      2.06167793
  C     -8.13158634      4.16061027      0.69316596
  C     -7.15506601      3.49244678     -0.02922701
  H     -8.75502725      4.86620377      2.62254383
  H     -9.00961033      4.53833146      0.18240763
  H     -7.27613210      3.35537214     -1.09757501
  H     -4.87087457      5.31375673     -3.95991299
  H     -6.74478166      3.99736410      3.77969122
  H     -4.99867678      2.82200902      2.50037530
  P     -0.60538788     -3.08340044      3.33253850
  C      0.67634352     -3.91570004      2.33376386
  C      1.77895402     -4.56664437      2.88954459
  C      2.66944836     -5.25411395      2.07766591
  C      2.48649835     -5.28456184      0.70261380
  C      1.39830361     -4.63206107      0.13829157
  C      0.49514801     -3.96205196      0.95072551
  H      3.18665527     -5.82010315      0.07246756
  H      1.94076619     -4.54144813      3.96072827
  H     -0.37641472     -3.49079623      0.51385247
  H      1.24027996     -4.65378821     -0.93369069
  C     -1.85311193     -4.39314931      3.49951526
  C     -3.20323369     -4.07214330      3.35226784
  C     -4.18219107     -5.04155912      3.50237681
  C     -3.82336648     -6.34829774      3.80253653
  C     -2.48185438     -6.68543835      3.93337760
  C     -1.50155050     -5.71879727      3.77766282
  H     -0.45630896     -5.99160946      3.87260369
  H     -4.58785022     -7.10524480      3.93173615
  H     -2.19765770     -7.70662279      4.15896214
  H     -3.48580952     -3.05078113      3.12067648
  H      3.51481027     -5.76477138      2.52411544
  C      0.16632351     -2.93414029      4.97142694
  C      1.17295105     -1.97205496      5.11408675
  C      1.78765221     -1.77141211      6.33921583
  C      1.39053527     -2.51098820      7.44591092
  C      0.37721752     -3.45008946      7.32045079
  C     -0.23297516     -3.66204115      6.09241507
  H      1.86678395     -2.34839998      8.40550030
  H      0.05758389     -4.02348560      8.18273606
  H     -1.02422379     -4.39766351      6.00810665
  H     -5.22636776     -4.77504639      3.38678914
  H      2.56948839     -1.02683686      6.43342304
  H      1.46939152     -1.37746663      4.25533418
  P      1.39966268      4.95737568     -0.34423045
  C      2.95791019      5.09778709      0.58744836
  C      4.04816513      5.84621896      0.13208306
  C      5.20941579      5.92208000      0.88555019
  C      5.30265993      5.24998412      2.09780295
  C      4.22906363      4.49903860      2.55526997
  C      3.06665371      4.42461344      1.80476141
  H      6.21258538      5.30940061      2.68316234
  H      3.98868679      6.36537280     -0.81781672
  H      2.22784747      3.83727182      2.16213393
  H      4.29632810      3.96679232      3.49713994
  C      0.57640486      6.55760054     -0.08907580
  C     -0.75849615      6.66292423     -0.49268759
  C     -1.46707122      7.83584025     -0.29389456
  C     -0.85595518      8.91897957      0.32482172
  C      0.46425426      8.82201811      0.74148704
  C      1.17804631      7.65009378      0.53872316
  H      2.20674401      7.58507606      0.87372900
  H     -1.41065504      9.83563376      0.48637844
  H      0.94394775      9.66280929      1.22896543
  H     -1.24151984      5.81266310     -0.96284599
  H      6.04602489      6.50844491      0.52398199
  C      1.95350967      4.97090559     -2.07665650
  C      2.24035428      3.73873958     -2.66933814
  C      2.73248079      3.67388363     -3.96250241
  C      2.92543379      4.84229167     -4.68858601
  C      2.61778687      6.07057233     -4.11872249
  C      2.13742003      6.13898558     -2.81925102
  H      3.30841598      4.79417458     -5.70110142
  H      2.75620099      6.98261709     -4.68759849
  H      1.89950542      7.10141631     -2.38075921
  H     -2.49994527      7.90272715     -0.61588924
  H      2.95614335      2.71009975     -4.40594742
  H      2.06130978      2.82592093     -2.11065115
  P     -0.67422422     -0.32861259     -3.97916865
  C     -0.80534438      1.50014374     -3.93857277
  C     -0.22028061      2.31586651     -4.91206792
  C     -0.34516426      3.69473576     -4.84381905
  C     -1.03847392      4.28401944     -3.79490143
  C     -1.62031537      3.48451825     -2.82188302
  C     -1.51295038      2.10421775     -2.90124443
  H     -1.12637901      5.36267695     -3.73707618
  H      0.33553789      1.86609661     -5.72718220
  H     -1.99276375      1.48352409     -2.15253866
  H     -2.17769909      3.93369499     -2.00802297
  C     -1.60876833     -0.75598244     -5.49327586
  C     -1.59430077     -2.08379845     -5.93495566
  C     -2.31937785     -2.46721903     -7.05180026
  C     -3.09289323     -1.53756658     -7.73354081
  C     -3.13616268     -0.22324763     -7.29076123
  C     -2.40147956      0.16608357     -6.18069689
  H     -2.44170317      1.19822639     -5.85270779
  H     -3.66461366     -1.83860601     -8.60328801
  H     -3.74259798      0.50759888     -7.81341339
  H     -1.01794223     -2.82593014     -5.39332186
  H      0.10839194      4.31359891     -5.60927454
  C      1.07774803     -0.49976387     -4.49456172
  C      2.04172857      0.03282370     -3.63149042
  C      3.39367932     -0.10650574     -3.89725241
  C      3.81130313     -0.79699014     -5.02786839
  C      2.86728536     -1.33042972     -5.89251787
  C      1.51179669     -1.18083996     -5.63189201
  H      4.86894659     -0.91762051     -5.23083030
  H      3.18433952     -1.86405541     -6.78113058
  H      0.79195571     -1.59448978     -6.32803920
  H     -2.28722423     -3.49854947     -7.38365930
  H      4.12365047      0.31912396     -3.21785675
  H      1.72116767      0.57364968     -2.74717213
  P     -1.86470900     -3.73462023     -2.27592756
  C     -2.64302974     -4.98664963     -1.19096394
  C     -4.03225260     -5.04696102     -1.04639758
  C     -4.61569736     -5.96553248     -0.18733394
  C     -3.82303802     -6.83710698      0.54575169
  C     -2.44211062     -6.78468062      0.41621228
  C     -1.85711881     -5.86738034     -0.44187056
  H     -4.27989656     -7.55886120      1.21225385
  H     -4.66472415     -4.38515325     -1.62681934
  H     -0.77892744     -5.85095132     -0.54488715
  H     -1.81558345     -7.46354618      0.98354442
  C     -0.60808403     -4.69156118     -3.18471616
  C      0.51087752     -4.00372530     -3.66103119
  C      1.47121670     -4.64286983     -4.42812584
  C      1.34171682     -5.99565492     -4.71123731
  C      0.25140863     -6.70039892     -4.21917442
  C     -0.71898606     -6.05658221     -3.46604722
  H     -1.56289508     -6.62190111     -3.08791743
  H      2.09073040     -6.50032721     -5.31000705
  H      0.15077730     -7.75909501     -4.42829668
  H      0.62695722     -2.95171715     -3.42687468
  H     -5.69527691     -6.00479111     -0.09752264
  C     -3.18932181     -3.47921614     -3.50760644
  C     -3.92283018     -2.29241401     -3.45232700
  C     -4.97089832     -2.06777954     -4.33158132
  C     -5.29526444     -3.02180221     -5.28525524
  C     -4.56961890     -4.20367912     -5.35372138
  C     -3.52698668     -4.43378480     -4.47038251
  H     -6.11121925     -2.84382433     -5.97559029
  H     -4.81801581     -4.95185554     -6.09736484
  H     -2.96844360     -5.36024331     -4.53488670
  H      2.31725144     -4.07949000     -4.80554419
  H     -5.53798294     -1.14609863     -4.27371867
  H     -3.66657410     -1.54261250     -2.71051313
  P      0.61277972      2.32872876      4.55383322
  C      0.90075518      4.12757454      4.56033424
  C      1.99493439      4.72638803      5.19149756
  C      2.19418888      6.09580363      5.10303502
  C      1.30886272      6.88756330      4.38438905
  C      0.21255461      6.30666685      3.76161796
  C      0.01161238      4.93878754      3.85015356
  H      1.47339559      7.95595296      4.30835903
  H      2.70040865      4.11822834      5.74616898
  H     -0.84283082      4.48760319      3.35700640
  H     -0.48348345      6.91865810      3.19949231
  C      2.30243093      1.65199223      4.65620063
  C      2.96686695      1.32205720      3.47284140
  C      4.28275291      0.88601943      3.50179961
  C      4.94567776      0.74953466      4.71384409
  C      4.28825061      1.05280358      5.89814426
  C      2.97661357      1.50441937      5.87157939
  H      2.47244228      1.74471875      6.80066795
  H      5.97276310      0.40468434      4.73390888
  H      4.79960703      0.94587267      6.84764559
  H      2.44949409      1.41161258      2.52292264
  H      3.04993758      6.54484568      5.59366743
  C     -0.11158723      1.93864101      6.17573485
  C     -0.15636223      2.84078931      7.24051485
  C     -0.72928671      2.46754224      8.44732481
  C     -1.26210317      1.19609334      8.60732027
  C     -1.22983022      0.29368068      7.55177277
  C     -0.66507363      0.66618380      6.34401996
  H     -1.70795576      0.90912355      9.55228259
  H     -1.64802103     -0.69975499      7.66754266
  H     -0.64742475     -0.03705727      5.51691550
  H      4.79353467      0.65064509      2.57560965
  H     -0.75915146      3.17614651      9.26679383
  H      0.25467398      3.83707046      7.12469123

