#B3LYP/6-31+G(d) OPT FREQ

246, Energy =   -372.44658677 au

0 1
 Au     -1.83080652     -0.92105164      1.02807446
 Au      0.12306513     -0.56719567     -0.73116846
 Au      2.08468374     -0.01123385      1.80647825
 Au     -0.52195550      0.01393553     -3.35931011
 Au      1.94072960     -0.56446425     -2.74135280
 Au      3.02800214     -1.55328768     -0.17869944
 Au     -0.56781251      1.37593660      1.17813479
 Au      2.92510431      1.14099696     -0.41342011
  P     -2.41587450      0.71165125     -4.56742882
  C     -2.00695663      2.09131870     -5.67668650
  C     -2.78606381      2.42408583     -6.78806079
  C     -2.43667564      3.49947682     -7.58985615
  C     -1.31119454      4.25717122     -7.29333821
  C     -0.52597336      3.93121095     -6.19582137
  C     -0.86895564      2.85136065     -5.39705845
  H     -1.04327675      5.09891233     -7.92098197
  H     -3.66476339      1.83516569     -7.02646018
  H     -0.24628149      2.58467102     -4.54899906
  H      0.35528495      4.51759569     -5.96103441
  C     -3.89401597      1.26764336     -3.66318971
  C     -4.48759922      0.37300735     -2.76635226
  C     -5.60826916      0.74393796     -2.04162394
  C     -6.13928179      2.01983458     -2.18090766
  C     -5.54505870      2.92234503     -3.05126681
  C     -4.43153165      2.54954698     -3.79020733
  H     -3.98636673      3.25811711     -4.47894708
  H     -7.01260650      2.30894175     -1.60835477
  H     -5.95319622      3.92008175     -3.16377057
  H     -4.07131714     -0.62257536     -2.64685499
  H     -3.04686952      3.74801895     -8.45034046
  C     -3.02737609     -0.59987455     -5.66417755
  C     -2.08831079     -1.50345132     -6.17101933
  C     -2.48001631     -2.53113910     -7.01350711
  C     -3.81845855     -2.67377529     -7.35617210
  C     -4.75980527     -1.78516580     -6.85534719
  C     -4.37061213     -0.75355997     -6.01401049
  H     -4.12719231     -3.47948135     -8.01169309
  H     -5.80501723     -1.89487210     -7.12033518
  H     -5.11372672     -0.06817442     -5.62281245
  H     -6.06881033      0.03553273     -1.36364358
  H     -1.74049969     -3.22301126     -7.40012977
  H     -1.04267939     -1.39197753     -5.90135838
  P      3.90707949     -3.46192509     -1.28953527
  C      5.70986206     -3.45130748     -1.08553817
  C      6.46996372     -4.59746580     -0.84714537
  C      7.84463942     -4.50200298     -0.68921280
  C      8.47489713     -3.26782563     -0.76665176
  C      7.72700371     -2.12027618     -0.99885858
  C      6.35398018     -2.21101901     -1.15150743
  H      9.54908448     -3.19829805     -0.64236736
  H      5.98465879     -5.56480363     -0.78527257
  H      5.76755315     -1.31371164     -1.32515961
  H      8.21273865     -1.15262192     -1.05589310
  C      3.66966509     -3.44898344     -3.09726395
  C      2.35758905     -3.39573974     -3.58186550
  C      2.10689115     -3.38138994     -4.94600465
  C      3.16216289     -3.43058452     -5.84637387
  C      4.46774017     -3.48890633     -5.37594846
  C      4.72255051     -3.49127163     -4.01093615
  H      5.74598649     -3.53272298     -3.65734983
  H      2.96795371     -3.42659567     -6.91233485
  H      5.29483115     -3.53856519     -6.07444667
  H      1.52993482     -3.41288925     -2.88261172
  H      8.42588008     -5.39798833     -0.50496626
  C      3.34956786     -5.12985872     -0.83059702
  C      2.91170247     -5.35171973      0.47622297
  C      2.45254276     -6.60054188      0.86385568
  C      2.41921253     -7.64384487     -0.05133869
  C      2.85378711     -7.43522692     -1.35363908
  C      3.31674089     -6.18794447     -1.74385447
  H      2.05451733     -8.61870132      0.24994130
  H      2.83426272     -8.24788556     -2.07035818
  H      3.65166172     -6.03388024     -2.76304424
  H      1.08444869     -3.33748339     -5.30341236
  H      2.11635417     -6.75777253      1.88231335
  H      2.92879885     -4.53479842      1.18947423
  P     -0.06276593      3.69308526      1.42031695
  C     -0.88059448      4.53599484      0.02838834
  C     -1.34378180      5.85227515      0.09312573
  C     -1.98690258      6.42663381     -0.99309679
  C     -2.18182336      5.69551083     -2.15760363
  C     -1.73311474      4.38275409     -2.23057721
  C     -1.08859911      3.80875564     -1.14614900
  H     -2.69066054      6.14260035     -3.00338289
  H     -1.21226383      6.42705420      1.00281807
  H     -0.75339823      2.77853766     -1.20229191
  H     -1.89095178      3.80300080     -3.13249273
  C      1.66199274      4.28436635      1.35916723
  C      2.64399701      3.48602872      1.94838260
  C      3.97477949      3.87368666      1.95035443
  C      4.34316901      5.07712809      1.36438430
  C      3.37542543      5.88557023      0.78408711
  C      2.04502107      5.49311270      0.77465211
  H      1.30265978      6.12711622      0.30369092
  H      5.38209180      5.38492997      1.36202997
  H      3.65795148      6.82764968      0.32878734
  H      2.35413328      2.55799712      2.42825552
  H     -2.34196230      7.44845784     -0.92772546
  C     -0.76410983      4.54148999      2.86832512
  C     -1.95050118      4.02583892      3.39498342
  C     -2.57398662      4.63931720      4.46919723
  C     -2.01539286      5.77679910      5.03687800
  C     -0.82855707      6.29043991      4.53058736
  C     -0.20285559      5.67799574      3.45449602
  H     -2.50156916      6.25997630      5.87605813
  H     -0.38753446      7.17580606      4.97307659
  H      0.72497381      6.08533043      3.06985746
  H      4.71996956      3.23864396      2.41535015
  H     -3.49722126      4.22898905      4.86199083
  H     -2.38401460      3.13700332      2.95106594
  P     -1.93702467     -3.41159678      0.82607234
  C     -3.49326577     -4.32848468      1.09537304
  C     -4.13283445     -5.06726795      0.09796786
  C     -5.35936920     -5.66662255      0.34526822
  C     -5.96610252     -5.53651512      1.58639848
  C     -5.34012959     -4.80379810      2.58664449
  C     -4.11842780     -4.20014603      2.34053059
  H     -6.92522585     -6.00400418      1.77484305
  H     -3.67203624     -5.17666387     -0.87675024
  H     -3.63660339     -3.62182483      3.12159800
  H     -5.80654638     -4.69905294      3.55949052
  C     -0.76834297     -4.22238712      1.97113819
  C      0.42775775     -3.56199544      2.26227663
  C      1.32592010     -4.08215572      3.17987527
  C      1.04059761     -5.27667789      3.82866105
  C     -0.14064289     -5.94857465      3.54333609
  C     -1.03842517     -5.42807017      2.62335742
  H     -1.95994644     -5.95944982      2.41666377
  H      1.73277473     -5.67627878      4.56021509
  H     -0.36867989     -6.88159162      4.04531455
  H      0.65008589     -2.62024028      1.77190579
  H     -5.84221059     -6.23885919     -0.43842215
  C     -1.40874998     -3.98701468     -0.82243066
  C     -1.91692808     -3.31181004     -1.93686202
  C     -1.58967657     -3.71698138     -3.22059616
  C     -0.74005144     -4.79977133     -3.40902993
  C     -0.20777316     -5.46056306     -2.30968765
  C     -0.53904402     -5.05928154     -1.02370997
  H     -0.49317065     -5.12847483     -4.41170513
  H      0.46522751     -6.29834199     -2.45295538
  H     -0.12187657     -5.58529899     -0.17222545
  H      2.23959309     -3.54306856      3.40481930
  H     -2.00164441     -3.19113301     -4.07471576
  H     -2.58249434     -2.46683613     -1.79229547
  P      1.86559346     -0.18327710      4.19943571
  C      0.69588101     -1.36720988      4.94939125
  C      1.03523865     -2.17598363      6.03653122
  C      0.12260243     -3.08251298      6.55350631
  C     -1.14159436     -3.19862048      5.99316403
  C     -1.48910338     -2.40081768      4.91272792
  C     -0.57927848     -1.49458486      4.39426690
  H     -1.85332304     -3.91117116      6.39295693
  H      2.02040071     -2.10053290      6.48142078
  H     -0.85723399     -0.88455369      3.54054086
  H     -2.47256857     -2.48787288      4.46711999
  C      1.47555382      1.38938353      5.02879801
  C      2.45262848      2.38955239      5.07965508
  C      2.16668984      3.62581099      5.63593607
  C      0.90085270      3.88442214      6.14472371
  C     -0.07903176      2.90351481      6.08834892
  C      0.20274759      1.66670826      5.52920740
  H     -0.56839031      0.90589423      5.49348203
  H      0.67842766      4.84980107      6.58344640
  H     -1.06991200      3.10095128      6.48139592
  H      3.44683275      2.18970793      4.69465309
  H      0.40338305     -3.70309716      7.39643684
  C      3.47108841     -0.66308625      4.90440335
  C      4.32533120     -1.45000621      4.12815996
  C      5.55105536     -1.86657995      4.62201810
  C      5.94384666     -1.49829423      5.90158879
  C      5.10579220     -0.71458017      6.68333998
  C      3.87727049     -0.30028591      6.19273029
  H      6.90353209     -1.81985774      6.28854163
  H      5.40894820     -0.42437420      7.68258297
  H      3.23122191      0.31310021      6.81038215
  H      2.93584586      4.38844831      5.67447759
  H      6.20133421     -2.47636324      4.00522218
  H      4.02414709     -1.73390983      3.12498571
  P     -3.97395866     -0.20055481      2.10963848
  C     -4.15034673     -0.33070587      3.91798968
  C     -3.39913700      0.53163551      4.72499653
  C     -3.42765901      0.41489642      6.10503959
  C     -4.18852195     -0.58059576      6.70421118
  C     -4.92028311     -1.45658284      5.91518090
  C     -4.90018807     -1.33684293      4.53313647
  H     -4.20834355     -0.67384228      7.78346806
  H     -2.79196281      1.30281974      4.26281395
  H     -5.47980723     -2.02573788      3.92969039
  H     -5.51269567     -2.23866102      6.37573611
  C     -5.47163996     -0.99575499      1.43335533
  C     -5.34780879     -1.81009329      0.30721581
  C     -6.45969002     -2.42137208     -0.25339628
  C     -7.71448446     -2.21945874      0.30393359
  C     -7.85402721     -1.39380708      1.41213186
  C     -6.74425698     -0.78094080      1.97152279
  H     -6.86592562     -0.12866292      2.82910024
  H     -8.58419196     -2.70056523     -0.12767627
  H     -8.83405773     -1.22449102      1.84274631
  H     -4.36740143     -1.96842701     -0.12935279
  H     -2.85378579      1.10236422      6.71592684
  C     -4.36414849      1.55511054      1.76989133
  C     -3.96521248      2.08341377      0.53951283
  C     -4.25185881      3.39694681      0.20416466
  C     -4.93616419      4.20907575      1.09758439
  C     -5.34595549      3.69427001      2.31966254
  C     -5.06925560      2.37614730      2.65290274
  H     -5.15182848      5.23919842      0.83940727
  H     -5.88795916      4.32033354      3.01881295
  H     -5.40011847      1.98731611      3.60883594
  H     -6.34244611     -3.05914547     -1.12197093
  H     -3.94175119      3.78513074     -0.75899444
  H     -3.43251375      1.45463629     -0.16580977
  P      3.84121845      2.63634776     -2.04119472
  C      5.64956863      2.65173415     -1.88663338
  C      6.48978908      2.93545549     -2.96877035
  C      7.86617047      2.90373690     -2.81229033
  C      8.42310203      2.58715369     -1.57989557
  C      7.59902567      2.30130048     -0.50010684
  C      6.22200937      2.33288584     -0.65368683
  H      9.50001241      2.56038683     -1.46256200
  H      6.06103312      3.17183713     -3.93621731
  H      5.57756243      2.10488451      0.18873981
  H      8.02838730      2.05006651      0.46290198
  C      3.34062551      4.36852541     -2.28472709
  C      1.97367271      4.64444541     -2.39135930
  C      1.53101225      5.94040406     -2.60440049
  C      2.44593948      6.98144422     -2.69359142
  C      3.80342588      6.72087568     -2.56635176
  C      4.25093771      5.42335695     -2.36430729
  H      5.31331883      5.23148442     -2.26947464
  H      2.09996263      7.99506117     -2.85784176
  H      4.52079633      7.53070615     -2.62974273
  H      1.25510573      3.83621179     -2.30107939
  H      8.50759741      3.12464584     -3.65746207
  C      3.59985392      1.88958963     -3.68752143
  C      4.17567597      0.62921665     -3.91047587
  C      3.97294000     -0.03529333     -5.11250552
  C      3.17159675      0.53009617     -6.09685022
  C      2.59245101      1.77085332     -5.88152362
  C      2.80783448      2.44806025     -4.68824442
  H      3.00654450      0.00422289     -7.02974496
  H      1.96984375      2.22179127     -6.64582011
  H      2.35796221      3.42332576     -4.54386933
  H      0.46947822      6.13792889     -2.70001675
  H      4.45082100     -0.99224950     -5.28060159
  H      4.82664216      0.19631746     -3.15935972

