246
Energy =   -372.44322972 au
 Au      0.79852734      1.70876558      3.18155389
 Au      1.09904100      3.03126643      0.93951125
 Au     -0.71596964     -0.40662269     -0.20569114
 Au     -1.13114891     -2.88873838      1.05143024
 Au     -0.47390439      0.41068257     -2.67820723
 Au     -1.31787882      1.99929440      1.53491484
 Au      1.58711228      0.73287616     -1.00928443
 Au     -0.43313740     -0.76619836      2.46265780
  P      1.00855671     -4.27447031      0.39624228
  C      2.57772601     -3.81440327      1.21788294
  C      2.55722006     -3.66835061      2.60897869
  C      3.71772766     -3.36838998      3.30505022
  C      4.90952157     -3.16869334      2.62093749
  C      4.93206855     -3.26929316      1.23757736
  C      3.77811144     -3.59597638      0.54084031
  H      5.81479330     -2.92680677      3.16519765
  H      1.62348580     -3.78995699      3.14938653
  H      3.81657636     -3.68369955     -0.53871233
  H      5.85546549     -3.10110087      0.69487938
  C      1.43115497     -4.19402234     -1.38342046
  C      0.90787376     -3.14593834     -2.13869804
  C      1.19419242     -3.01898422     -3.48854535
  C      1.99989695     -3.95888004     -4.11526184
  C      2.51921975     -5.01791506     -3.37988767
  C      2.24438293     -5.13369855     -2.02574081
  H      2.65621875     -5.96468208     -1.46469156
  H      2.21651216     -3.87154290     -5.17352480
  H      3.14351337     -5.75903194     -3.86526553
  H      0.25587380     -2.42544454     -1.66082556
  H      3.69067894     -3.28610712      4.38549776
  C      0.93370158     -6.08218472      0.67340582
  C      1.42128459     -6.69020223      1.83203969
  C      1.24246718     -8.04923780      2.04394376
  C      0.56757119     -8.82184240      1.10896050
  C      0.07162372     -8.22810943     -0.04400642
  C      0.24775710     -6.87084987     -0.25703119
  H      0.42748196     -9.88278004      1.27852796
  H     -0.45802498     -8.82263476     -0.77954286
  H     -0.14495636     -6.41457154     -1.15914363
  H      0.77735102     -2.19057633     -4.05090411
  H      1.63427777     -8.50594435      2.94548823
  H      1.95368025     -6.10404724      2.57235975
  P      3.89338444      0.84173931     -0.48801177
  C      4.82760776      2.33219488     -0.94112181
  C      4.81352130      3.46249372     -0.11841067
  C      5.48973070      4.61241857     -0.49369927
  C      6.15228461      4.66746711     -1.71228938
  C      6.14189189      3.56378449     -2.55399322
  C      5.48889601      2.40287643     -2.17128775
  H      6.67387197      5.57079714     -2.00547565
  H      4.27802318      3.43752106      0.82508087
  H      5.49555922      1.54065005     -2.82895773
  H      6.65008228      3.60330739     -3.51040881
  C      4.84809551     -0.50613985     -1.24944340
  C      4.21908097     -1.38153540     -2.13483310
  C      4.93404769     -2.40281977     -2.74328461
  C      6.28293932     -2.56916075     -2.46414145
  C      6.91676420     -1.71024015     -1.57476396
  C      6.20750153     -0.68327764     -0.97297844
  H      6.70995648     -0.01342697     -0.28421454
  H      6.84082512     -3.36803791     -2.93808573
  H      7.96973765     -1.83777483     -1.35265163
  H      3.16166848     -1.26308670     -2.34493943
  H      5.49805251      5.47044279      0.16789240
  C      4.19059636      0.62830868      1.29502057
  C      3.24253492     -0.09614696      2.02047314
  C      3.38547857     -0.28369784      3.38625473
  C      4.48166638      0.25027838      4.05132974
  C      5.43996207      0.95571841      3.33818510
  C      5.29996575      1.14165393      1.97021710
  H      4.58891074      0.10937784      5.12047189
  H      6.30402553      1.36567018      3.84793024
  H      6.05851357      1.69357153      1.42777871
  H      4.43379567     -3.06936877     -3.43602133
  H      2.64662539     -0.86327338      3.92497354
  H      2.39365815     -0.53182147      1.50585776
  P     -3.61860499      1.83512101      1.09085354
  C     -4.48724696      3.42642261      0.99761333
  C     -5.51142564      3.69200682      0.08526382
  C     -6.14932862      4.92365995      0.09223910
  C     -5.77808862      5.89933658      1.00752606
  C     -4.75868727      5.64530304      1.91624106
  C     -4.11460135      4.41913047      1.90806696
  H     -6.28215765      6.85847064      1.01218822
  H     -5.80733738      2.93599936     -0.63286341
  H     -3.31135212      4.22395365      2.61119448
  H     -4.46178665      6.40542131      2.62937882
  C     -4.57808646      0.90338935      2.32367048
  C     -3.90933503      0.13999305      3.28065303
  C     -4.61016430     -0.54934925      4.25691734
  C     -5.99551658     -0.47239665      4.29804442
  C     -6.67426201      0.28885260      3.35396066
  C     -5.97402598      0.97151413      2.37215655
  H     -6.51096254      1.56829672      1.64335863
  H     -6.54591138     -0.99906961      5.06856075
  H     -7.75542353      0.35546664      3.38639452
  H     -2.82595226      0.09406396      3.26356603
  H     -6.94245146      5.11972256     -0.61979364
  C     -3.94306351      1.02533495     -0.50309066
  C     -3.48557324      1.65786851     -1.66396307
  C     -3.63801179      1.05859340     -2.90418181
  C     -4.23836894     -0.19072756     -3.00415870
  C     -4.68677843     -0.83001757     -1.85795114
  C     -4.53741705     -0.23123453     -0.61436674
  H     -4.35575906     -0.65955154     -3.97432376
  H     -5.16498862     -1.79983995     -1.93024744
  H     -4.89035946     -0.74197892      0.27417335
  H     -4.07253746     -1.13477327      4.99402846
  H     -3.30477803      1.57823218     -3.79424495
  H     -3.01673194      2.63221143     -1.59388432
  P      1.37873048      4.87930811     -0.59495927
  C      1.69984620      4.80262844     -2.39284125
  C      1.32757446      5.84596852     -3.24759420
  C      1.61343838      5.78075093     -4.60248183
  C      2.27211855      4.67677769     -5.12698139
  C      2.63697993      3.63204066     -4.29034723
  C      2.34702633      3.69420841     -2.93655537
  H      2.49561509      4.62839501     -6.18619460
  H      0.80276764      6.70795945     -2.85162071
  H      2.63085342      2.87210374     -2.28983625
  H      3.14990835      2.76548666     -4.69075419
  C      2.54667801      6.12526898      0.03175220
  C      2.77817195      6.14405535      1.41075005
  C      3.64908662      7.06400067      1.97098781
  C      4.30943654      7.97705425      1.15912950
  C      4.09562394      7.96259549     -0.21259196
  C      3.22290185      7.04326123     -0.77518504
  H      3.07402346      7.03724474     -1.84860452
  H      4.99301298      8.69595906      1.59486938
  H      4.61262322      8.66973906     -0.85073458
  H      2.26843228      5.42592802      2.04517856
  H      1.31728861      6.59619867     -5.25199942
  C     -0.22300479      5.75162228     -0.57064845
  C     -1.34650100      5.02622687     -0.97766586
  C     -2.59674513      5.62013739     -1.01733077
  C     -2.74773764      6.94365806     -0.62280754
  C     -1.64453349      7.66511381     -0.19097717
  C     -0.38771575      7.07679870     -0.16840979
  H     -3.72703634      7.40700244     -0.64755369
  H     -1.75874899      8.69554405      0.12495549
  H      0.46848775      7.65293432      0.16232703
  H      3.81584700      7.06602447      3.04190753
  H     -3.45614318      5.04938334     -1.35042877
  H     -1.22920970      3.98731686     -1.26976965
  P      0.42541486      0.79399733      5.38695715
  C      0.46627988     -1.01240723      5.62759766
  C      1.59457195     -1.65892991      6.13567440
  C      1.64563031     -3.04488283      6.19626438
  C      0.58220420     -3.80695724      5.73084018
  C     -0.54976950     -3.17656929      5.23102458
  C     -0.60940847     -1.79200129      5.18513971
  H      0.62857025     -4.88875001      5.77163631
  H      2.43226933     -1.07624334      6.50198351
  H     -1.51678945     -1.30758616      4.84524870
  H     -1.39298145     -3.76174151      4.88225333
  C     -1.25241510      1.24142702      5.93738435
  C     -1.87513719      2.33938895      5.33880371
  C     -3.16432948      2.70588975      5.68977368
  C     -3.85320842      1.98014180      6.65165674
  C     -3.24337836      0.89272729      7.26273518
  C     -1.95410598      0.52365318      6.91062455
  H     -1.49455196     -0.33289388      7.39002770
  H     -4.86384721      2.26058200      6.92383046
  H     -3.77523421      0.32506763      8.01738343
  H     -1.34153680      2.90984816      4.58623468
  H      2.52057069     -3.53071439      6.61231750
  C      1.54594013      1.44309210      6.66357744
  C      2.62502531      2.23361593      6.26279955
  C      3.51275840      2.74199610      7.19811597
  C      3.32912874      2.46966500      8.54657854
  C      2.25628735      1.68847562      8.95696130
  C      1.36887678      1.17637376      8.02454712
  H      4.02119721      2.86758186      9.27929289
  H      2.10978517      1.47674202     10.00967014
  H      0.53399946      0.56742896      8.35238392
  H     -3.63256995      3.55651398      5.20761982
  H      4.34739366      3.35235835      6.87303983
  H      2.76618801      2.44697561      5.20786187
  P     -0.47439664      0.77981710     -5.04247227
  C     -1.58191810     -0.19647936     -6.10515185
  C     -2.86367714      0.25652456     -6.42921904
  C     -3.73439018     -0.54789229     -7.14857047
  C     -3.34192202     -1.81679670     -7.55170866
  C     -2.07262183     -2.28014385     -7.23224096
  C     -1.20187826     -1.48159938     -6.50709210
  H     -4.02249221     -2.44270022     -8.11655995
  H     -3.17708382      1.25059274     -6.13044210
  H     -0.21149246     -1.85086012     -6.26377346
  H     -1.75729858     -3.26747689     -7.54967863
  C      1.17108356      0.48859784     -5.77249896
  C      2.25979407      0.31986759     -4.91475796
  C      3.53343225      0.09004193     -5.41182489
  C      3.73870140      0.02654893     -6.78289257
  C      2.66520522      0.18948361     -7.64866120
  C      1.39140667      0.41526426     -7.15106074
  H      0.56122649      0.52658706     -7.83894069
  H      4.73216466     -0.15391604     -7.17611720
  H      2.81965129      0.13622678     -8.72006509
  H      2.10361992      0.36511023     -3.84242222
  H     -4.72239264     -0.17879592     -7.39820617
  C     -0.87732436      2.50879613     -5.44552502
  C     -1.10206510      3.39007034     -4.38651380
  C     -1.45021314      4.71071264     -4.62074036
  C     -1.56815956      5.17378318     -5.92359600
  C     -1.33653763      4.31081572     -6.98712824
  C     -0.99788584      2.98752678     -6.75335684
  H     -1.84139871      6.20554848     -6.11075610
  H     -1.42720555      4.66920961     -8.00589440
  H     -0.83263788      2.32084178     -7.59173836
  H      4.36220876     -0.04447705     -4.72541537
  H     -1.62825819      5.37696496     -3.78409500
  H     -1.00080814      3.02972797     -3.36794746
  P     -2.89921823     -4.30386829      0.21451535
  C     -4.65479868     -3.80438283      0.26486694
  C     -5.55446431     -4.08705139     -0.76566449
  C     -6.88765513     -3.71956868     -0.65362842
  C     -7.33937002     -3.06965856      0.48653462
  C     -6.45200200     -2.78100641      1.51467378
  C     -5.11725967     -3.13937458      1.40329828
  H     -8.38197748     -2.78816113      0.57493238
  H     -5.21135045     -4.59821574     -1.65785435
  H     -4.42608175     -2.90596741      2.20735486
  H     -6.80008410     -2.27391955      2.40710707
  C     -2.96225561     -5.95082268      0.98315428
  C     -2.09252910     -6.21722703      2.04216572
  C     -2.11099474     -7.44634081      2.68226300
  C     -3.00232401     -8.42746975      2.27139583
  C     -3.88392588     -8.16947007      1.22955159
  C     -3.87271610     -6.93826021      0.59354176
  H     -4.58160461     -6.73735615     -0.20201152
  H     -3.01620093     -9.39056602      2.76792805
  H     -4.58929275     -8.92952766      0.91436216
  H     -1.39489118     -5.45083089      2.36385795
  H     -7.57593940     -3.94719876     -1.45926225
  C     -2.59719643     -4.55675102     -1.56334802
  C     -2.43466765     -3.39643455     -2.32743744
  C     -2.13964784     -3.46948558     -3.67747881
  C     -1.97790866     -4.70823452     -4.28480447
  C     -2.12441054     -5.86694408     -3.53640611
  C     -2.43502818     -5.79485092     -2.18513725
  H     -1.73492387     -4.76783010     -5.33937773
  H     -1.99724644     -6.83568049     -4.00543342
  H     -2.55627625     -6.70858568     -1.61535973
  H     -1.42617010     -7.63793826      3.50034550
  H     -2.02575349     -2.55873228     -4.25494426
  H     -2.54148345     -2.42630668     -1.85208402
