#B3LYP/6-31+G(d) OPT FREQ

246, Energy =   -372.42428927 au

0 1
 Au     -2.39408316     -1.62619102     -1.37926844
 Au     -0.61600748     -2.02342186     -3.36315634
 Au     -0.68112931      1.01082070      3.64475967
 Au     -0.01048329      2.18483273     -1.35878582
 Au     -0.13575229      0.89848458      1.19817015
 Au      0.23311028     -0.64706845     -1.11218009
 Au     -0.38266989     -3.39513164     -1.09507416
 Au      2.18606354      1.02476343     -0.52596717
  P     -4.54150277     -1.20858793     -0.49057744
  C     -4.57286409     -0.44493321      1.15851632
  C     -5.50679563      0.51944515      1.54395012
  C     -5.48751737      1.04013940      2.82927396
  C     -4.54870618      0.59545363      3.74878638
  C     -3.62553416     -0.37453686      3.38022274
  C     -3.62740174     -0.88183065      2.09099162
  H     -4.53801476      1.00340961      4.75232645
  H     -6.25292861      0.86602921      0.83877315
  H     -2.89565035     -1.63091948      1.80502740
  H     -2.91010802     -0.74560146      4.10336133
  C     -5.41658476     -2.78322365     -0.25694645
  C     -5.07355926     -3.86699191     -1.06898582
  C     -5.72583330     -5.08255753     -0.93797414
  C     -6.72152617     -5.23497347      0.01771181
  C     -7.06400437     -4.16749032      0.83723527
  C     -6.42024056     -2.94770406      0.70155820
  H     -6.69580441     -2.11786973      1.34259864
  H     -7.23034285     -6.18577899      0.12371400
  H     -7.83961082     -4.28412728      1.58515587
  H     -4.28963271     -3.75072182     -1.81042050
  H     -6.21618414      1.78991945      3.11485912
  C     -5.65355779     -0.20528540     -1.51587983
  C     -5.41296404      1.16835138     -1.62401416
  C     -6.20592686      1.95739366     -2.44037553
  C     -7.23367896      1.38516379     -3.17836504
  C     -7.46579228      0.01949447     -3.09492318
  C     -6.68212122     -0.77332309     -2.27012431
  H     -7.85004043      2.00361632     -3.82003646
  H     -8.26345179     -0.43296884     -3.67246929
  H     -6.87400171     -1.83828538     -2.20772509
  H     -5.45519391     -5.91084243     -1.58250428
  H     -6.01535629      3.02244584     -2.50563516
  H     -4.59871607      1.61535520     -1.06384972
  P     -0.02410669     -5.11752598      0.48138116
  C     -0.41662455     -4.52926864      2.15867212
  C     -0.80059865     -5.39461397      3.18765404
  C     -1.11456483     -4.89862276      4.44301250
  C     -1.06031603     -3.53340934      4.68899439
  C     -0.68828473     -2.66571051      3.67290429
  C     -0.36755069     -3.15829842      2.41847559
  H     -1.30935955     -3.14810295      5.67031212
  H     -0.86630184     -6.46041540      3.00181926
  H     -0.07197995     -2.47253513      1.63139949
  H     -0.64234560     -1.59781569      3.85627195
  C      1.64907104     -5.82087297      0.56472919
  C      2.56522356     -5.47898981     -0.43209283
  C      3.84767610     -6.00633139     -0.42148680
  C      4.23336203     -6.87565262      0.58918993
  C      3.33193504     -7.21845358      1.58906549
  C      2.04748398     -6.69755805      1.57851202
  H      1.35047476     -6.97165375      2.36197544
  H      5.23595820     -7.28655019      0.59834729
  H      3.62897823     -7.89789824      2.37931963
  H      2.26810740     -4.79416941     -1.22038248
  H     -1.40848378     -5.58126982      5.23181468
  C     -1.13125597     -6.54432603      0.28806551
  C     -2.49673414     -6.35710701      0.53212899
  C     -3.38997759     -7.40076147      0.35809988
  C     -2.93823180     -8.63853721     -0.08215678
  C     -1.58958054     -8.82706473     -0.34839836
  C     -0.68923302     -7.78750900     -0.16754716
  H     -3.63856141     -9.45397105     -0.21887856
  H     -1.23325152     -9.78955493     -0.69656165
  H      0.36312512     -7.94522391     -0.37430783
  H      4.54629604     -5.73622472     -1.20482948
  H     -4.44241180     -7.24700158      0.56764423
  H     -2.85513652     -5.38921407      0.86851736
  P      0.14853355     -1.29290251     -5.48917586
  C      1.28653336      0.09328858     -5.18425683
  C      2.67180338     -0.04504436     -5.28557011
  C      3.51198908      1.00613040     -4.94929796
  C      2.98253905      2.20774545     -4.50179329
  C      1.60659717      2.35156132     -4.38035201
  C      0.76453194      1.30207178     -4.71114262
  H      3.63876798      3.03103860     -4.24581742
  H      3.09755729     -0.97760128     -5.63745555
  H     -0.30871372      1.41969998     -4.60623251
  H      1.18949834      3.28797063     -4.02934520
  C     -1.06423300     -0.65515218     -6.68549684
  C     -2.22183755     -1.41350756     -6.88784662
  C     -3.18762151     -0.99755086     -7.79001025
  C     -3.01587543      0.18833739     -8.49317202
  C     -1.87256199      0.94992100     -8.29601099
  C     -0.89837534      0.53180323     -7.40180750
  H     -0.00670312      1.13171156     -7.26193443
  H     -3.77306498      0.51721118     -9.19505039
  H     -1.73380569      1.87455743     -8.84421263
  H     -2.36029231     -2.33662527     -6.33411890
  H      4.58513689      0.88520024     -5.04207219
  C      1.12936829     -2.49382508     -6.43366934
  C      1.40990586     -3.73744895     -5.86346912
  C      2.16870857     -4.67240771     -6.55095204
  C      2.65031334     -4.37672017     -7.81870098
  C      2.36899163     -3.14641280     -8.39912573
  C      1.61308050     -2.20870450     -7.71446113
  H      3.24115585     -5.10768005     -8.35800589
  H      2.73916492     -2.91678272     -9.39148079
  H      1.39252538     -1.25085005     -8.17265142
  H     -4.07651413     -1.59834507     -7.94334629
  H      2.37992832     -5.63378287     -6.09711740
  H      1.02099726     -3.97165192     -4.87744205
  P      3.91965137     -0.64087896      0.16423458
  C      5.52694721     -0.00552205      0.76084725
  C      5.72008260      0.32209383      2.10527631
  C      6.91375836      0.88302746      2.53159177
  C      7.92912271      1.14423123      1.62214981
  C      7.74792932      0.82965988      0.28252624
  C      6.55976878      0.25849974     -0.14471741
  H      8.85902670      1.58852284      1.95654239
  H      4.93554642      0.13329041      2.82924267
  H      6.43795540      0.00570835     -1.19162917
  H      8.53525962      1.02716166     -0.43580891
  C      4.40464498     -1.86047989     -1.10543931
  C      3.58815761     -2.03200825     -2.22434674
  C      3.91120394     -2.95047147     -3.21075514
  C      5.07029455     -3.70599500     -3.10246656
  C      5.89924820     -3.53989361     -2.00008717
  C      5.57010392     -2.62885579     -1.00797422
  H      6.22899807     -2.50582486     -0.15616178
  H      5.33072946     -4.41691509     -3.87772283
  H      6.81024363     -4.12053697     -1.91343084
  H      2.68991219     -1.43250543     -2.32722365
  H      7.04716940      1.12138585      3.58049555
  C      3.39138160     -1.66014808      1.58637084
  C      2.70775205     -1.01336135      2.62005539
  C      2.34024977     -1.69983819      3.76556391
  C      2.63820700     -3.04936393      3.89413775
  C      3.29870197     -3.70650750      2.86635813
  C      3.67371204     -3.01964012      1.72099389
  H      2.34926111     -3.58771481      4.78917098
  H      3.52948444     -4.76167731      2.95711416
  H      4.19079813     -3.54942051      0.92943018
  H      3.26082363     -3.06916487     -4.07035411
  H      1.81747493     -1.17918384      4.55938209
  H      2.46087035      0.03757439      2.52244204
  P      3.41186752      3.13304939     -0.20263271
  C      2.49272998      4.69855080     -0.39964671
  C      1.77980504      5.26518930      0.65914755
  C      1.05087990      6.42943952      0.47429539
  C      1.02068513      7.04305254     -0.76978866
  C      1.70050390      6.47278669     -1.83786931
  C      2.42357530      5.30519627     -1.65809057
  H      0.46651439      7.96356089     -0.90834163
  H      1.80471658      4.80270081      1.63923500
  H      2.95351191      4.86815248     -2.49747569
  H      1.66922268      6.94059802     -2.81536916
  C      4.86340950      3.38557118     -1.26865138
  C      5.26252709      2.34149400     -2.10461922
  C      6.36765329      2.47666306     -2.93163589
  C      7.08609282      3.66407182     -2.93761980
  C      6.68716868      4.71823833     -2.12625150
  C      5.58197383      4.58579957     -1.30043585
  H      5.26540958      5.42192868     -0.68737424
  H      7.95128247      3.77166074     -3.58106911
  H      7.23821217      5.65137224     -2.13865969
  H      4.69214189      1.41833894     -2.10787537
  H      0.51223025      6.86340638      1.30882701
  C      4.01467692      3.24219534      1.51345493
  C      3.13529673      2.82348648      2.51716103
  C      3.49286311      2.90392232      3.85242004
  C      4.74378495      3.39033386      4.20744500
  C      5.63311378      3.78924902      3.21927871
  C      5.27429048      3.71589806      1.88106528
  H      5.02565874      3.45284631      5.25202332
  H      6.61417988      4.16255165      3.48919458
  H      5.98460757      4.02326311      1.12274582
  H      6.66599692      1.65432323     -3.57191680
  H      2.79263004      2.58601178      4.61610923
  H      2.16167326      2.42931338      2.24466111
  P     -1.82263293      3.52593702     -2.15862746
  C     -1.52564991      5.14983241     -2.92458387
  C     -0.96733007      5.19777875     -4.20688494
  C     -0.68387102      6.41278709     -4.80893861
  C     -0.95784108      7.60059071     -4.14280735
  C     -1.50602871      7.56537480     -2.86832171
  C     -1.77498899      6.34997514     -2.25562804
  H     -0.74550577      8.55112533     -4.61746413
  H     -0.76984754      4.27476868     -4.74149199
  H     -2.18800357      6.33672710     -1.25362940
  H     -1.72607178      8.48875460     -2.34522893
  C     -3.08284565      3.85894789     -0.88417049
  C     -2.89721003      3.34889092      0.40047448
  C     -3.83651537      3.56839064      1.39534997
  C     -4.98113392      4.30173322      1.11904964
  C     -5.18013321      4.81598841     -0.15610297
  C     -4.24070887      4.59836610     -1.15142810
  H     -4.40380132      5.00861262     -2.14164611
  H     -5.71674737      4.47510460      1.89582154
  H     -6.07138030      5.39189718     -0.37655085
  H     -2.00462613      2.77526241      0.62331759
  H     -0.25449408      6.43246762     -5.80389083
  C     -2.78414945      2.65178054     -3.44187925
  C     -2.73405536      1.25766452     -3.45853334
  C     -3.47091661      0.52507600     -4.37432570
  C     -4.26917804      1.18026972     -5.30095645
  C     -4.32114869      2.56751431     -5.30495495
  C     -3.58733770      3.29963538     -4.38354430
  H     -4.84554425      0.61106273     -6.02062431
  H     -4.93978274      3.08464524     -6.02915639
  H     -3.63672976      4.38208902     -4.40128712
  H     -3.67261102      3.16245133      2.38687074
  H     -3.41915050     -0.55805762     -4.36339501
  H     -2.11103647      0.74372384     -2.73542030
  P     -1.03857633      1.24373181      5.97882572
  C     -2.36379171      2.43076029      6.34658556
  C     -3.00839004      2.51266194      7.58500933
  C     -4.01182940      3.44652212      7.79226684
  C     -4.38655430      4.31025787      6.77152894
  C     -3.75334733      4.23951627      5.53813753
  C     -2.75054967      3.30597109      5.32920169
  H     -5.17278039      5.03748777      6.93708694
  H     -2.72735494      1.83822931      8.38592652
  H     -2.25540525      3.24751085      4.36540716
  H     -4.04162905      4.91082688      4.73695921
  C      0.41682806      1.87645526      6.87489482
  C      1.65945842      1.31852732      6.55838919
  C      2.81074828      1.73304122      7.21079369
  C      2.73965029      2.73095664      8.17378945
  C      1.51503387      3.30802611      8.47960053
  C      0.36044334      2.88374081      7.83868040
  H     -0.58914998      3.34121476      8.09112976
  H      3.63851492      3.06032618      8.68163416
  H      1.45573427      4.09199790      9.22571338
  H      1.71983982      0.55199923      5.79294844
  H     -4.50416409      3.50000704      8.75634966
  C     -1.49907642     -0.24180288      6.93440138
  C     -2.83467966     -0.65430286      6.97765763
  C     -3.19365643     -1.83032011      7.61718667
  C     -2.22348024     -2.62171973      8.21779604
  C     -0.89220081     -2.22800603      8.17459793
  C     -0.53197468     -1.05134687      7.53489568
  H     -2.50404082     -3.53944518      8.72100157
  H     -0.12916441     -2.83788106      8.64442451
  H      0.51103150     -0.75659810      7.51414936
  H      3.76345085      1.27782234      6.96443931
  H     -4.23562557     -2.12742014      7.64895717
  H     -3.60390202     -0.04020654      6.52335875

