#B3LYP/6-31+G(d) OPT FREQ

246, Energy =   -372.44296927 au

0 1
 Au      1.61871348      2.76251716      0.40239448
 Au     -0.70910155      1.40145857      0.53957593
 Au     -1.07828379     -1.46744823      0.02643178
 Au     -0.46608210     -0.87955040      2.45346716
 Au     -0.88497243     -1.74832996     -2.80337694
 Au     -1.20545719     -3.93333234     -1.31648868
 Au     -3.22977956     -2.22789216     -1.63470142
 Au      1.50146454      0.05990798      0.51445939
  P      0.23144114     -0.56737738      4.69434346
  C     -0.97805072     -0.98532215      5.98016499
  C     -0.62249884     -1.23271666      7.31041082
  C     -1.59531503     -1.54468058      8.24710121
  C     -2.93084903     -1.61486429      7.87261155
  C     -3.29450825     -1.37438355      6.55465149
  C     -2.32393598     -1.06355925      5.61564176
  H     -3.68786348     -1.86126076      8.60784780
  H      0.41914764     -1.18917957      7.60802614
  H     -2.60596963     -0.88203346      4.58336654
  H     -4.33504576     -1.43263067      6.25596995
  C      0.77931213      1.13128232      5.06057187
  C      1.51196492      1.79685724      4.07479054
  C      1.98293872      3.08164129      4.28362743
  C      1.71616180      3.73000187      5.48244377
  C      0.97215102      3.08711260      6.46248212
  C      0.50573895      1.79690083      6.25592543
  H     -0.07313517      1.30725990      7.03042248
  H      2.08788308      4.73443640      5.64914849
  H      0.75436943      3.59173654      7.39661762
  H      1.70912791      1.30022987      3.13156112
  H     -1.30877455     -1.73542767      9.27477777
  C      1.69107507     -1.58166980      5.09535037
  C      1.51339411     -2.90645181      5.50643232
  C      2.60582915     -3.73154291      5.72337561
  C      3.89305263     -3.25290705      5.51748169
  C      4.08072714     -1.94405515      5.09634430
  C      2.99044841     -1.11468159      4.88318303
  H      4.74679266     -3.89916741      5.68349894
  H      5.08238034     -1.56374393      4.93068759
  H      3.15483239     -0.09392070      4.55620982
  H      2.55210625      3.57878293      3.50674752
  H      2.45034540     -4.75197639      6.05437044
  H      0.51180387     -3.29062849      5.66465892
  P     -5.46820650     -1.52939906     -1.35298602
  C     -6.77008211     -2.71440795     -1.78859383
  C     -7.03567834     -3.77874689     -0.91934148
  C     -7.96440286     -4.74849207     -1.25996067
  C     -8.62909935     -4.67968068     -2.47751827
  C     -8.35633166     -3.64072979     -3.35640697
  C     -7.42860677     -2.66671180     -3.02000831
  H     -9.35560648     -5.43867785     -2.74256640
  H     -6.51362972     -3.84082604      0.02976478
  H     -7.21843976     -1.86211576     -3.71564031
  H     -8.86703117     -3.58700464     -4.31082540
  C     -5.84855717     -0.02452045     -2.30289092
  C     -4.82147738      0.61830196     -2.99603545
  C     -5.06886314      1.78060800     -3.71034435
  C     -6.34689126      2.32069796     -3.73576882
  C     -7.37744184      1.69184151     -3.04870630
  C     -7.13305769      0.52808687     -2.33646940
  H     -7.94307979      0.04209596     -1.80429934
  H     -6.54011948      3.23067355     -4.29166451
  H     -8.37744356      2.10910897     -3.06837074
  H     -3.81979521      0.20115590     -2.97639017
  H     -8.16839629     -5.56188331     -0.57318548
  C     -5.82653525     -1.05002343      0.36832896
  C     -4.76762029     -0.59790881      1.15788094
  C     -4.97182585     -0.21855290      2.47378123
  C     -6.24459045     -0.28650031      3.02361444
  C     -7.30847901     -0.72604576      2.24720998
  C     -7.10529822     -1.10326815      0.92834553
  H     -6.40736732      0.00543421      4.05447204
  H     -8.30471181     -0.77640672      2.67085958
  H     -7.94386819     -1.44702422      0.33391363
  H     -4.26066347      2.26360202     -4.24764997
  H     -4.13545509      0.13326858      3.06775049
  H     -3.77078809     -0.54497824      0.73311230
  P     -0.26679147     -5.93557602     -0.46983142
  C      1.46276886     -6.10529756     -1.01129033
  C      2.15466652     -7.31955899     -0.98530982
  C      3.45757435     -7.39570488     -1.45228313
  C      4.08628254     -6.26712057     -1.96138518
  C      3.40985956     -5.05516239     -1.99177051
  C      2.11121048     -4.97585448     -1.51570552
  H      5.10028876     -6.33250051     -2.33782575
  H      1.66721205     -8.21278892     -0.61197709
  H      1.58545035     -4.02656347     -1.54025746
  H      3.89301612     -4.16945689     -2.38885269
  C     -1.03343592     -7.51444766     -0.93487951
  C     -1.93784809     -8.16415852     -0.09083967
  C     -2.57058473     -9.32658677     -0.50374929
  C     -2.31957830     -9.84863829     -1.76497747
  C     -1.43641734     -9.20051228     -2.61862724
  C     -0.80251198     -8.03788469     -2.21170527
  H     -0.11673765     -7.53346446     -2.88410319
  H     -2.81409840    -10.75829317     -2.08444117
  H     -1.24103265     -9.60112713     -3.60657467
  H     -2.14181048     -7.76301121      0.89554791
  H      3.98116648     -8.34425731     -1.42735622
  C     -0.22383625     -5.98381809      1.35161174
  C     -0.82170689     -4.94762510      2.06945318
  C     -0.83522295     -4.95567894      3.45547765
  C     -0.25001712     -6.00756165      4.14663060
  C      0.34850104     -7.04718714      3.44466399
  C      0.36282090     -7.03798493      2.05876858
  H     -0.26369298     -6.02129118      5.23009806
  H      0.80400752     -7.87177266      3.98043270
  H      0.82934521     -7.85637443      1.52276281
  H     -3.26303995     -9.82555318      0.16426346
  H     -1.30843006     -4.14177520      3.99346232
  H     -1.28630056     -4.12713407      1.53395722
  P      3.58914334     -1.07252107      0.58281647
  C      4.77495176     -0.26790494      1.71046273
  C      5.90586347     -0.91478207      2.21725244
  C      6.76682816     -0.25432567      3.08113825
  C      6.51291666      1.05809491      3.45771703
  C      5.39089891      1.71026977      2.96624579
  C      4.53216545      1.05018154      2.10211440
  H      7.18594497      1.56932220      4.13578642
  H      6.11128651     -1.94273734      1.94119279
  H      3.65394764      1.56290717      1.72697786
  H      5.17971436      2.73347875      3.25688457
  C      4.41893413     -1.05837361     -1.03755130
  C      3.65788800     -1.44705927     -2.14441054
  C      4.21103695     -1.45553143     -3.41439414
  C      5.52538798     -1.04758452     -3.60239221
  C      6.28300407     -0.63820890     -2.51450446
  C      5.73677198     -0.64651247     -1.23889773
  H      6.33962812     -0.33088969     -0.39522308
  H      5.95480060     -1.04464082     -4.59733804
  H      7.30776564     -0.31514277     -2.65688767
  H      2.62141072     -1.73921018     -2.00325914
  H      7.64116239     -0.76894564      3.46232284
  C      3.67257186     -2.82062125      1.09238020
  C      2.72507585     -3.28234426      2.00685822
  C      2.77377351     -4.58373313      2.47721371
  C      3.76042870     -5.45008030      2.02678582
  C      4.70029849     -5.00640265      1.10715739
  C      4.66057267     -3.70013525      0.64290579
  H      3.79407082     -6.47017128      2.39120981
  H      5.46950455     -5.68005568      0.74765555
  H      5.39639166     -3.36359203     -0.07859823
  H      3.61271111     -1.77044072     -4.26199468
  H      2.04312696     -4.92021893      3.20249004
  H      1.94598399     -2.61137467      2.35554543
  P      0.14931818     -0.66106165     -4.63256846
  C     -1.06136258      0.27606803     -5.61363570
  C     -0.75545996      1.45572160     -6.29686815
  C     -1.74040692      2.13357515     -7.00069269
  C     -3.04004616      1.64719115     -7.03070589
  C     -3.35524321      0.47464781     -6.35581524
  C     -2.37406688     -0.20225867     -5.65000326
  H     -3.80735932      2.18056191     -7.57922642
  H      0.25616123      1.84466706     -6.28079785
  H     -2.62352641     -1.11489682     -5.11838874
  H     -4.36788751      0.08874923     -6.37574312
  C      0.82998343     -1.90227892     -5.77083841
  C      1.39646815     -3.05058097     -5.20962206
  C      1.96466235     -4.02373962     -6.01537337
  C      1.96528207     -3.86601427     -7.39522502
  C      1.39237801     -2.73666648     -7.96403582
  C      0.82752533     -1.75791423     -7.15995324
  H      0.37589492     -0.88183922     -7.61156116
  H      2.40641399     -4.62750555     -8.02746477
  H      1.38427880     -2.61568651     -9.04100363
  H      1.38201945     -3.18103735     -4.13193731
  H     -1.48943387      3.04678360     -7.52774859
  C      1.52234966      0.51029348     -4.39711058
  C      1.55218301      1.26695452     -3.22483941
  C      2.55737992      2.19514699     -3.01376587
  C      3.55419714      2.37340849     -3.96187370
  C      3.54269800      1.61589949     -5.12473335
  C      2.53362761      0.69095936     -5.34447030
  H      4.34216144      3.09766302     -3.79375109
  H      4.32219849      1.74643467     -5.86626591
  H      2.53302423      0.10346017     -6.25538437
  H      2.40222949     -4.90765837     -5.56537835
  H      2.56245430      2.77976944     -2.10122689
  H      0.78169858      1.12239822     -2.47525061
  P     -2.50232718      3.00319506      0.41736238
  C     -4.22830442      2.94206513      1.01400640
  C     -4.55408733      3.26097080      2.33441826
  C     -5.86503670      3.17296587      2.77639751
  C     -6.86863383      2.75857663      1.91107540
  C     -6.55265506      2.41985658      0.60277343
  C     -5.24235135      2.50096369      0.15951106
  H     -7.89368411      2.69614017      2.25641332
  H     -3.78132237      3.59420930      3.01802411
  H     -5.00204813      2.23026184     -0.86221407
  H     -7.32845503      2.08767828     -0.07777646
  C     -2.66460629      3.60521621     -1.29256052
  C     -1.76924447      3.12041011     -2.24707320
  C     -1.80073195      3.57780801     -3.55463511
  C     -2.74069739      4.52777080     -3.93275847
  C     -3.65022906      5.00763260     -2.99830672
  C     -3.61554306      4.55127718     -1.68952721
  H     -4.33643942      4.92677140     -0.97236978
  H     -2.76743986      4.88900989     -4.95413775
  H     -4.39065674      5.74314460     -3.29060863
  H     -1.04057471      2.37196861     -1.95668654
  H     -6.10422338      3.43365414      3.80090674
  C     -1.83126238      4.43519284      1.32810704
  C     -1.27343821      4.18060981      2.58528883
  C     -0.77257536      5.21386541      3.36054363
  C     -0.79681551      6.51734925      2.88051751
  C     -1.31503613      6.77677519      1.61909845
  C     -1.83345465      5.74554237      0.85025481
  H     -0.41502729      7.32846102      3.48935440
  H     -1.32069224      7.78896399      1.23109636
  H     -2.23665940      5.96686728     -0.13098757
  H     -1.09321053      3.19023138     -4.27898948
  H     -0.35752154      5.00027551      4.33890476
  H     -1.23220473      3.16118969      2.95512409
  P      2.88284710      4.77415150      0.23639804
  C      1.88265223      6.09387222     -0.51070490
  C      2.09024933      7.45615763     -0.27938698
  C      1.26484615      8.40062899     -0.87101855
  C      0.22930593      8.00215998     -1.70558705
  C      0.01784636      6.65119708     -1.94888694
  C      0.83491618      5.70606445     -1.35056176
  H     -0.41394552      8.74344091     -2.16498850
  H      2.89539420      7.77784140      0.37114900
  H      0.65760568      4.65015906     -1.52903267
  H     -0.78754636      6.33261767     -2.60139018
  C      4.32569499      4.59622748     -0.86037120
  C      5.02694265      3.38693330     -0.82744355
  C      6.13575113      3.19077331     -1.63519177
  C      6.55358379      4.19767467     -2.49609122
  C      5.85864532      5.39913544     -2.54325760
  C      4.75274669      5.60007291     -1.73111563
  H      4.21694199      6.54144670     -1.77533463
  H      7.41843152      4.04480029     -3.13085414
  H      6.18028554      6.18582683     -3.21579278
  H      4.69519255      2.59363014     -0.16600207
  H      1.43267531      9.45414060     -0.67971526
  C      3.58353501      5.49944303      1.75018242
  C      2.73050627      6.15138714      2.64664826
  C      3.21154875      6.63716460      3.85231926
  C      4.54710631      6.46083865      4.19070005
  C      5.39908610      5.80105402      3.31565599
  C      4.92335234      5.32183390      2.10420869
  H      4.92273886      6.83832087      5.13436352
  H      6.44264179      5.66229324      3.57375652
  H      5.60034457      4.81675895      1.42458181
  H      6.66951047      2.24784941     -1.59699124
  H      2.54173149      7.15684505      4.52796246
  H      1.68490783      6.28321017      2.39035790

