246
Energy =   -372.45167743 au
 Au      2.91313296      0.47559734     -1.11442701
 Au     -1.44582755      1.00160072      0.67052662
 Au      1.44192921      1.80174707      0.59117095
 Au     -2.42673946     -0.69068837      2.62476596
 Au      0.77407830     -0.89904708     -0.48867178
 Au     -0.86140578     -2.81252869      0.71891274
 Au      0.15143284     -0.26930059      2.33902659
 Au     -1.54137000     -1.85139312     -1.57897099
  P     -4.69187955     -1.21396952      3.08005371
  C     -5.39018328     -2.39744315      1.88245520
  C     -6.59803110     -3.07140367      2.07953126
  C     -7.06952782     -3.95918615      1.12441252
  C     -6.34735751     -4.18927679     -0.03931332
  C     -5.14598844     -3.52614048     -0.24750230
  C     -4.67464234     -2.63990480      0.70859381
  H     -6.71868492     -4.88695443     -0.78055338
  H     -7.17250709     -2.90365420      2.98270230
  H     -3.73464654     -2.12504903      0.54555141
  H     -4.56827578     -3.70263367     -1.14796249
  C     -5.83753044      0.19508377      3.00223752
  C     -5.97389086      1.04584440      4.10356964
  C     -6.79566462      2.15991080      4.03355093
  C     -7.47764969      2.45171764      2.85874778
  C     -7.33022065      1.62626425      1.75191585
  C     -6.51512842      0.50671138      1.82101334
  H     -6.41194631     -0.13714958      0.95474086
  H     -8.12445498      3.31948671      2.80722716
  H     -7.85436539      1.85063601      0.82977084
  H     -5.44653131      0.82262023      5.02464310
  H     -8.00714023     -4.47631734      1.29160521
  C     -4.96855017     -1.92285277      4.72794211
  C     -3.85857594     -2.41950000      5.41478634
  C     -3.99716151     -2.99296725      6.66814951
  C     -5.25174621     -3.07262514      7.25689132
  C     -6.36104970     -2.56525881      6.59306680
  C     -6.22444647     -1.99004369      5.33938789
  H     -5.36426588     -3.52211824      8.23641533
  H     -7.33988350     -2.61433754      7.05567779
  H     -7.09467928     -1.58060240      4.83937781
  H     -6.90742085      2.79996617      4.90098295
  H     -3.12490726     -3.37748574      7.18430491
  H     -2.87861200     -2.35264512      4.95366060
  P      4.54183001      2.25484406     -1.57160589
  C      4.30276223      3.96058951     -0.96075556
  C      4.61974972      4.29863722      0.35760641
  C      4.37575581      5.57562081      0.83743040
  C      3.80702506      6.53550590      0.01129997
  C      3.46930776      6.20628540     -1.29496668
  C      3.70499051      4.92695551     -1.77516194
  H      3.62359911      7.53588895      0.38495465
  H      5.07010795      3.56060333      1.01225641
  H      3.43750397      4.68084779     -2.79700204
  H      3.02280020      6.94938408     -1.94574832
  C      4.91780511      2.48776124     -3.33623834
  C      4.32599501      1.61936449     -4.25601752
  C      4.58190457      1.73762989     -5.61368227
  C      5.43308753      2.73354068     -6.07244829
  C      6.01492800      3.61500087     -5.17085861
  C      5.75833626      3.49941795     -3.81338032
  H      6.20276477      4.20558715     -3.12134111
  H      5.63804364      2.82714076     -7.13237450
  H      6.67207458      4.39995834     -5.52661529
  H      3.65495092      0.84481675     -3.90025670
  H      4.63441627      5.82225148      1.86095768
  C      6.10450226      1.77264468     -0.76842833
  C      6.00259726      1.18405569      0.49659111
  C      7.13642763      0.80867777      1.19876312
  C      8.39265526      1.00885976      0.64197791
  C      8.50507795      1.57362789     -0.62099894
  C      7.37111814      1.95213265     -1.32432679
  H      9.28183469      0.71648460      1.18776116
  H      9.48275321      1.71916861     -1.06544671
  H      7.47650627      2.38098920     -2.31379041
  H      4.11750438      1.04999890     -6.31129873
  H      7.03825219      0.35628240      2.17906620
  H      5.02070864      1.01702829      0.92808887
  P     -2.77357438      2.43447746     -0.64867946
  C     -4.34995398      1.72711469     -1.21047324
  C     -5.44262727      2.53420709     -1.54686007
  C     -6.64841195      1.96252764     -1.92051256
  C     -6.78612475      0.58093295     -1.95539254
  C     -5.70983483     -0.22920159     -1.62051163
  C     -4.50134739      0.34179050     -1.25395888
  H     -7.73128169      0.13561162     -2.24216334
  H     -5.35059823      3.61329264     -1.50095649
  H     -3.66266856     -0.29355706     -0.99009525
  H     -5.80988066     -1.30793269     -1.64627854
  C     -2.00273109      3.22054605     -2.09538626
  C     -0.67484343      3.63625744     -1.97280189
  C     -0.04499685      4.31179874     -3.00519571
  C     -0.72688892      4.55410448     -4.19069180
  C     -2.03824894      4.12232244     -4.33366946
  C     -2.67814842      3.46817451     -3.29130361
  H     -3.70937511      3.15551432     -3.40575299
  H     -0.23409466      5.07483213     -5.00311069
  H     -2.57206168      4.30408267     -5.25916414
  H     -0.13306287      3.42269930     -1.05711114
  H     -7.48575536      2.59880279     -2.18192040
  C     -3.33623564      3.84805198      0.34921614
  C     -4.28553838      3.60139960      1.34770392
  C     -4.72203711      4.62423771      2.17306309
  C     -4.21411934      5.90788363      2.01900326
  C     -3.26796091      6.16045302      1.03666854
  C     -2.82409630      5.13847651      0.21030648
  H     -4.55693740      6.70885820      2.66309248
  H     -2.86942241      7.16023693      0.90974077
  H     -2.08043308      5.35034433     -0.54937953
  H      0.97959479      4.64478913     -2.88468353
  H     -5.46329246      4.41794001      2.93641397
  H     -4.68738479      2.60070589      1.46717428
  P      4.16540664     -1.48391388     -2.02100219
  C      5.96191090     -1.35638429     -2.34653059
  C      6.92439127     -1.66271639     -1.38238185
  C      8.27392611     -1.50227311     -1.65709083
  C      8.68586534     -1.01943552     -2.89118964
  C      7.73843194     -0.70088167     -3.85472661
  C      6.38980234     -0.86867956     -3.58606751
  H      9.74105062     -0.89292355     -3.10224107
  H      6.62317781     -2.03885043     -0.41159114
  H      5.66082025     -0.62880148     -4.35164141
  H      8.04929763     -0.32412668     -4.82236154
  C      3.56412274     -2.28530346     -3.54263392
  C      2.36260862     -1.85043315     -4.10338975
  C      1.89299029     -2.40101746     -5.28567350
  C      2.61058140     -3.40678944     -5.91714226
  C      3.80503934     -3.85283406     -5.36690250
  C      4.28527068     -3.29219882     -4.19406269
  H      5.23088995     -3.62930563     -3.78486646
  H      2.24123938     -3.83884912     -6.83988807
  H      4.37081354     -4.63590080     -5.85814184
  H      1.79623423     -1.06778942     -3.61006468
  H      9.00661855     -1.75487186     -0.89932745
  C      4.09632527     -2.77738716     -0.73803503
  C      4.36026435     -2.37392021      0.57541457
  C      4.38760872     -3.29610201      1.60919421
  C      4.12321268     -4.63421813      1.34809118
  C      3.81412876     -5.03808068      0.05734129
  C      3.80377433     -4.11897807     -0.98148771
  H      4.15191723     -5.35880164      2.15305924
  H      3.58785150     -6.07875809     -0.14494755
  H      3.56992775     -4.45060153     -1.98650887
  H      0.96647567     -2.04035020     -5.71685074
  H      4.62462394     -2.97284463      2.61642839
  H      4.54737984     -1.32562105      0.78368756
  P     -2.12651643     -1.36390956     -3.86280888
  C     -3.75559614     -0.79152369     -4.43969033
  C     -3.97831823      0.52542474     -4.84545672
  C     -5.24555619      0.93909020     -5.22744519
  C     -6.30643264      0.04429100     -5.21016381
  C     -6.09868193     -1.26653509     -4.79948128
  C     -4.83576623     -1.68008690     -4.40656968
  H     -7.29436023      0.36716210     -5.51654588
  H     -3.15171419      1.22648223     -4.87368395
  H     -4.67920656     -2.70325776     -4.08127474
  H     -6.92405681     -1.96882873     -4.78351849
  C     -1.80706804     -2.83703073     -4.88326376
  C     -0.88751825     -3.77166260     -4.39961414
  C     -0.56505908     -4.89848998     -5.13854167
  C     -1.16212105     -5.11120124     -6.37379918
  C     -2.08359794     -4.19495645     -6.86228902
  C     -2.40570887     -3.06547910     -6.12544066
  H     -3.13281488     -2.36219394     -6.51495056
  H     -0.91304143     -5.99271212     -6.95270501
  H     -2.55592122     -4.35943368     -7.82381752
  H     -0.41999320     -3.60781921     -3.43423204
  H     -5.40239565      1.96361742     -5.54512369
  C     -0.96451877     -0.14630679     -4.57465684
  C     -0.18822080      0.62889863     -3.71393821
  C      0.76864134      1.50195026     -4.20813083
  C      0.94695640      1.63346929     -5.57745340
  C      0.16495645      0.88533321     -6.44788889
  C     -0.77739140     -0.00287436     -5.95298469
  H      1.69362447      2.31706029     -5.96453471
  H      0.29680749      0.98644659     -7.51883926
  H     -1.37035773     -0.59327811     -6.64219732
  H      0.15253939     -5.61117757     -4.74845154
  H      1.37350070      2.08007101     -3.51872748
  H     -0.33346809      0.54438911     -2.64332955
  P     -0.35675738     -4.08863209      2.69228384
  C      0.77546964     -5.50191705      2.50170653
  C      1.67881376     -5.89207809      3.49318775
  C      2.45594906     -7.02829783      3.32141612
  C      2.34231879     -7.78476751      2.16206783
  C      1.45683839     -7.39615007      1.16517100
  C      0.67923520     -6.26086914      1.33303815
  H      2.94631564     -8.67524293      2.03439766
  H      1.77829071     -5.30355407      4.39819928
  H     -0.01187277     -5.95714833      0.55366355
  H      1.36794555     -7.98097408      0.25701742
  C     -1.73837780     -4.83386425      3.61442261
  C     -3.02616283     -4.68997062      3.09562757
  C     -4.11613728     -5.26406673      3.73157805
  C     -3.93183050     -5.99083727      4.89899206
  C     -2.65379699     -6.15173801      5.41944325
  C     -1.56196974     -5.58617484      4.78010332
  H     -0.56653841     -5.73886769      5.18165545
  H     -4.78199757     -6.43783227      5.40058486
  H     -2.50537842     -6.72824393      6.32508557
  H     -3.16806376     -4.12498239      2.18074853
  H      3.14861188     -7.32667017      4.09971927
  C      0.51611040     -3.00485273      3.87120412
  C      1.62310607     -2.30557499      3.36312985
  C      2.29910081     -1.37660808      4.14572037
  C      1.87904598     -1.13281886      5.44901296
  C      0.78667476     -1.81760391      5.95854345
  C      0.10435668     -2.74026227      5.17432073
  H      2.40872565     -0.41494097      6.06399031
  H      0.45912455     -1.63699964      6.97589507
  H     -0.75176906     -3.25929282      5.58885025
  H     -5.10949226     -5.14129379      3.31476753
  H      3.16463397     -0.86451983      3.74279403
  H      1.98688451     -2.53573989      2.36844934
  P      1.05442424      3.37618272      2.37976483
  C      0.53873941      5.08032003      2.01291983
  C     -0.05628142      5.91511458      2.96433674
  C     -0.40432317      7.21547322      2.63359784
  C     -0.17364875      7.69815824      1.35148266
  C      0.40659803      6.87405528      0.39661430
  C      0.76309782      5.57584476      0.72723693
  H     -0.44535431      8.71588556      1.09751461
  H     -0.24983736      5.54418918      3.96430949
  H      1.22988627      4.93832544     -0.01537455
  H      0.58553649      7.24257548     -0.60688375
  C      2.60354094      3.53567330      3.32002332
  C      3.46957622      2.43810207      3.32834717
  C      4.67891817      2.49390652      4.00203038
  C      5.04570453      3.65414947      4.67077697
  C      4.19664477      4.75261259      4.66535161
  C      2.98324276      4.69703047      3.99586341
  H      2.33139095      5.56300944      3.99520350
  H      5.99458218      3.70359251      5.19161092
  H      4.48036388      5.66057421      5.18462088
  H      3.19006534      1.53635979      2.79317504
  H     -0.85870942      7.85544627      3.38087307
  C     -0.16112350      2.80814090      3.61230710
  C     -1.52043505      3.03727997      3.38235817
  C     -2.48432995      2.45814142      4.19356240
  C     -2.10614548      1.63471716      5.24673809
  C     -0.75838977      1.40494711      5.48872289
  C      0.20792048      1.97939154      4.67491485
  H     -2.85921541      1.17926661      5.87889040
  H     -0.45576475      0.76803166      6.31158174
  H      1.25664526      1.78995550      4.87221847
  H      5.33794481      1.63315228      3.99852450
  H     -3.53386757      2.64896946      4.00046777
  H     -1.82350612      3.67606878      2.56138899
