246
Energy =   -372.41419731 au
 Au      0.15933585      2.02008492     -1.08338141
 Au     -1.10273192     -0.37667705     -0.68079545
 Au      0.30102407     -2.41677311     -2.51263982
 Au      1.53437835     -0.60250817     -0.64104772
 Au      0.34917087      0.22439940     -3.25156261
 Au      0.46263025      0.76617471      1.50744917
 Au     -0.08193381     -2.11366514      1.30641988
 Au     -1.73720641     -3.10999177     -0.70031884
  P     -0.05312380      0.14945712     -7.38161681
  C     -0.72137260      1.38240884     -6.17396498
  C     -1.59123736      1.04372627     -5.13133399
  C     -2.10595491      2.02322673     -4.28860039
  C     -1.73970237      3.35121847     -4.45809258
  C     -0.86953665      3.69877580     -5.48145769
  C     -0.37202233      2.72305504     -6.33475130
  H     -2.14400388      4.11424053     -3.80282719
  H     -1.92466208      0.01943272     -5.02348704
  H      0.29317518      3.00554531     -7.14329481
  H     -0.58369758      4.73514897     -5.62181718
  C      0.71160518     -1.05024453     -6.19188252
  C      1.97543384     -0.70062169     -5.68987832
  C      2.74754257     -1.60993607     -4.98009423
  C      2.26710245     -2.88938232     -4.74168525
  C      0.99164074     -3.23718534     -5.18486092
  C      0.22671804     -2.32529067     -5.90419714
  H     -0.75304276     -2.62886642     -6.25591333
  H      2.88333967     -3.62331531     -4.23946746
  H      0.62440268     -4.24592986     -5.03057779
  H      2.38028544      0.28066553     -5.91507529
  H     -2.80866247      1.74297312     -3.51198330
  C     -1.58531125     -0.75684213     -7.84824121
  C     -2.87768494     -0.25209341     -7.68685148
  C     -3.97944175     -0.96303061     -8.14167058
  C     -3.81246439     -2.18617927     -8.77590840
  C     -2.53191069     -2.68318960     -8.97985009
  C     -1.43081504     -1.96877359     -8.53477285
  H     -4.67524281     -2.73850039     -9.12969369
  H     -2.38940838     -3.62402537     -9.49912801
  H     -0.43388851     -2.35333278     -8.72485037
  H      3.73352409     -1.32905803     -4.63109219
  H     -4.97352634     -0.55167326     -8.00732408
  H     -3.03258253      0.70786442     -7.20801471
  P     -3.49089472      0.06859649     -0.82014439
  C     -4.28003368     -0.47989097     -2.37113890
  C     -5.63071358     -0.24008626     -2.64522480
  C     -6.18183856     -0.62532990     -3.85575320
  C     -5.39442441     -1.24539561     -4.81706467
  C     -4.05776876     -1.50332804     -4.55177375
  C     -3.50864586     -1.13056376     -3.33488396
  H     -5.82191057     -1.53043991     -5.77106314
  H     -6.25460603      0.25382677     -1.90905232
  H     -2.46568642     -1.33991034     -3.12936428
  H     -3.43899569     -1.99241414     -5.29527103
  C     -4.12677742      1.77135055     -0.62189685
  C     -3.32188100      2.84645130     -0.99862912
  C     -3.80416021      4.14410003     -0.97746314
  C     -5.10705485      4.39266956     -0.56762670
  C     -5.90952577      3.33815493     -0.15391950
  C     -5.42660498      2.03881499     -0.17934922
  H     -6.06511688      1.22811866      0.15279721
  H     -5.49225245      5.40549235     -0.56284655
  H     -6.92121435      3.52599726      0.18555889
  H     -2.29795601      2.66444001     -1.31242209
  H     -7.23035689     -0.43315262     -4.05227238
  C     -4.37870357     -0.86743049      0.46191803
  C     -4.86988686     -2.14924978      0.20358121
  C     -5.46985959     -2.88809143      1.21165045
  C     -5.58289560     -2.36214421      2.49147210
  C     -5.09060283     -1.09193116      2.76095698
  C     -4.48402277     -0.35240568      1.75716792
  H     -6.06109357     -2.93721361      3.27510239
  H     -5.18476958     -0.67105855      3.75541080
  H     -4.10132750      0.63957296      1.97327991
  H     -3.16128290      4.96219351     -1.27980542
  H     -5.85816506     -3.87609514      0.99388926
  H     -4.80169471     -2.56246729     -0.79713618
  P     -2.65184017     -5.14270482     -1.64046687
  C     -1.33052918     -6.38777947     -1.80038571
  C     -1.41815868     -7.45798481     -2.69555509
  C     -0.41434317     -8.41169076     -2.75193909
  C      0.68081871     -8.32333786     -1.90375425
  C      0.77248354     -7.27115561     -1.00329685
  C     -0.22188070     -6.30634024     -0.95550956
  H      1.46033031     -9.07542469     -1.94205078
  H     -2.27772767     -7.54349611     -3.35082240
  H     -0.14246651     -5.48382941     -0.25183298
  H      1.61747545     -7.20591658     -0.32707027
  C     -3.28405135     -4.95611327     -3.33480357
  C     -4.63993549     -4.72772431     -3.58268320
  C     -5.09832852     -4.55607182     -4.88036053
  C     -4.20843155     -4.58336178     -5.94557233
  C     -2.85290552     -4.76786245     -5.70765526
  C     -2.39341847     -4.94813885     -4.41283519
  H     -1.33441672     -5.09945641     -4.23472491
  H     -4.56738035     -4.45456712     -6.95952566
  H     -2.15296744     -4.78115922     -6.53494296
  H     -5.34221945     -4.69192764     -2.75748814
  H     -0.49173721     -9.23258345     -3.45529595
  C     -3.93423896     -6.08373857     -0.75090642
  C     -4.04959072     -5.89696349      0.62846561
  C     -4.97509473     -6.62252349      1.36461300
  C     -5.79822658     -7.54216755      0.72762904
  C     -5.68631949     -7.74169391     -0.64170786
  C     -4.75753081     -7.02464783     -1.37716684
  H     -6.52820709     -8.10255582      1.30056597
  H     -6.32561864     -8.46079825     -1.13943407
  H     -4.67066579     -7.19804114     -2.44453050
  H     -6.15580196     -4.40002859     -5.05957333
  H     -5.04862021     -6.47483641      2.43438961
  H     -3.40779111     -5.17704121      1.12459553
  P      1.41441596      4.05063569     -1.41316032
  C      0.72797200      5.62971937     -0.82828315
  C      1.27024227      6.36240734      0.22913451
  C      0.66716832      7.53943370      0.64757637
  C     -0.48342017      7.99839279      0.02135092
  C     -1.03544239      7.27281024     -1.02838982
  C     -0.43880425      6.09438205     -1.44589825
  H     -0.94848401      8.92132779      0.34664525
  H      2.17417616      6.02024072      0.72015942
  H     -0.87133477      5.53055489     -2.26609200
  H     -1.93110044      7.62852738     -1.52426486
  C      1.92725030      4.38185328     -3.12667273
  C      2.18041910      3.29373728     -3.96551342
  C      2.59547773      3.48461738     -5.27280104
  C      2.74910018      4.77219935     -5.77017423
  C      2.48682932      5.86273833     -4.95219817
  C      2.08384546      5.67245215     -3.63935146
  H      1.88761752      6.53116788     -3.00801092
  H      3.06702502      4.92304459     -6.79496510
  H      2.59829125      6.86950674     -5.33690145
  H      2.04459480      2.28461061     -3.58891968
  H      1.10405481      8.10289183      1.46395983
  C      2.98149423      3.85203869     -0.50938226
  C      2.91887511      3.47129804      0.83510746
  C      4.07566044      3.25179116      1.56414787
  C      5.31691653      3.39617230      0.95814917
  C      5.39160553      3.77256579     -0.37474386
  C      4.23471795      3.99849642     -1.10597020
  H      6.22214438      3.21463982      1.52529264
  H      6.35807656      3.88953131     -0.85154622
  H      4.30793697      4.29024984     -2.14701952
  H      2.78813960      2.62737275     -5.90779824
  H      4.00786789      2.97333016      2.60923355
  H      1.95174550      3.34896377      1.31294152
  P     -0.33511692      1.92814824      3.45223920
  C     -1.11388995      0.78701536      4.63599424
  C     -0.93067932      0.86884359      6.01782432
  C     -1.49627683     -0.07898340      6.85819529
  C     -2.26005064     -1.11224142      6.33460934
  C     -2.45685711     -1.19801168      4.96276544
  C     -1.87871898     -0.26444928      4.11961226
  H     -2.69785287     -1.85454008      6.99163239
  H     -0.33910970      1.67371347      6.43823323
  H     -2.01538192     -0.35035281      3.04618334
  H     -3.05184997     -2.00194523      4.54555042
  C     -1.64551610      3.11201007      3.01941799
  C     -1.30218565      4.19106309      2.19759799
  C     -2.25703215      5.12266447      1.82675482
  C     -3.57125298      4.97971364      2.25309428
  C     -3.92799372      3.89715663      3.04411305
  C     -2.97253895      2.96777545      3.42749970
  H     -3.25637876      2.13397021      4.05890165
  H     -4.31713176      5.71076539      1.96493463
  H     -4.95399613      3.77881410      3.37347871
  H     -0.27685667      4.30544328      1.85947105
  H     -1.33756216     -0.00876732      7.92791734
  C      0.82873760      2.90784317      4.44434036
  C      2.15443378      2.47309410      4.52209703
  C      3.08114801      3.16698564      5.28414451
  C      2.69680414      4.31389534      5.96685874
  C      1.38511278      4.76114053      5.88682817
  C      0.45306513      4.06378324      5.13344115
  H      3.42061501      4.86041421      6.55969504
  H      1.08235975      5.65669053      6.41649135
  H     -0.56974058      4.41823639      5.07838682
  H     -1.97604006      5.96343081      1.20304650
  H      4.10426572      2.81315214      5.34449281
  H      2.45250736      1.58344700      3.97716525
  P      3.85637146     -1.17207325     -0.66346441
  C      4.55809953     -1.36366297      1.00535449
  C      5.34956120     -2.44979364      1.38575257
  C      5.81619515     -2.55658222      2.68803464
  C      5.50689909     -1.57940966      3.62261323
  C      4.72453433     -0.49256815      3.25404575
  C      4.24734388     -0.38989553      1.95860561
  H      5.87111690     -1.66420622      4.63970873
  H      5.60453345     -3.21425297      0.66076250
  H      3.62689833      0.45536353      1.67657549
  H      4.48024281      0.27233697      3.98224944
  C      4.97652384      0.00027474     -1.48764364
  C      4.50186672      0.68007107     -2.61240959
  C      5.32067341      1.55464888     -3.30783316
  C      6.62464996      1.77078559     -2.88101611
  C      7.10133748      1.11468944     -1.75339283
  C      6.28504341      0.23469059     -1.05875004
  H      6.66553946     -0.27220391     -0.17884740
  H      7.26788881      2.45220511     -3.42486466
  H      8.11635754      1.28650233     -1.41284019
  H      3.47993275      0.51761082     -2.94005130
  H      6.42472373     -3.40747775      2.97150271
  C      4.20106280     -2.76357842     -1.48119531
  C      3.22662407     -3.76321081     -1.42530635
  C      3.42524312     -4.98522716     -2.04870360
  C      4.60668049     -5.22849362     -2.73714467
  C      5.58489911     -4.24528501     -2.79644832
  C      5.38576824     -3.02105746     -2.17556407
  H      4.76044394     -6.18096920     -3.23037337
  H      6.50809744     -4.42999701     -3.33365668
  H      6.15440266     -2.25905304     -2.23601633
  H      4.93995879      2.07092984     -4.18132441
  H      2.65232073     -5.74403527     -2.00334228
  H      2.30282546     -3.58166637     -0.88648140
  P      0.68330181     -3.46804404      3.15571183
  C      1.79045623     -2.74336038      4.41062704
  C      2.77565316     -3.48402678      5.06852368
  C      3.53180448     -2.90569221      6.07677901
  C      3.31349869     -1.58535439      6.44684112
  C      2.35054292     -0.83434264      5.78434232
  C      1.60348016     -1.40688996      4.76783605
  H      3.89429923     -1.14101888      7.24639640
  H      2.95084514     -4.51719963      4.79314406
  H      0.85896474     -0.81647732      4.24493251
  H      2.17716754      0.19873637      6.06523500
  C      1.60069425     -4.94467038      2.61764796
  C      2.71541220     -4.73603872      1.79999560
  C      3.47604766     -5.80474044      1.35636892
  C      3.12734775     -7.10090923      1.71689207
  C      2.01426583     -7.32004666      2.51800659
  C      1.25141073     -6.25090572      2.96411567
  H      0.38622451     -6.43248652      3.59108198
  H      3.72602162     -7.93723099      1.37617261
  H      1.73995522     -8.32969322      2.80084415
  H      2.99023933     -3.72335787      1.52319061
  H      4.28894041     -3.49305752      6.58199907
  C     -0.69301350     -4.12256936      4.15009832
  C     -0.54569186     -4.49660947      5.48873397
  C     -1.62857821     -4.97527765      6.20811926
  C     -2.87425949     -5.08723999      5.60459078
  C     -3.03437634     -4.71539555      4.27673981
  C     -1.95222801     -4.23370408      3.55649813
  H     -3.72098407     -5.45851815      6.16926468
  H     -4.00579420     -4.79008572      3.80246071
  H     -2.08148093     -3.92985027      2.52268952
  H      4.33983508     -5.62694962      0.72618825
  H     -1.49957076     -5.26228439      7.24482404
  H      0.42123071     -4.40894200      5.96975859
