246
Energy =   -372.45288230 au
 Au      0.70747210     -0.22291828     -2.56818149
 Au      1.61845004     -0.50206051      1.96384255
 Au     -0.27495805     -1.26722497     -0.11439372
 Au     -0.85338480      0.25537592      2.30920129
 Au      0.51048974      1.22376655     -0.06883297
 Au      4.15018838     -1.36414114      1.71104870
 Au      3.07182140     -1.45115959      4.02817812
 Au     -1.71540019      0.55401891     -1.72272040
  P     -3.64095637      1.59132217     -2.64913653
  C     -5.31258698      1.38850962     -1.96364453
  C     -5.62077812      1.99465727     -0.74056275
  C     -6.87312370      1.83066631     -0.17242558
  C     -7.82681139      1.04084138     -0.80188525
  C     -7.52260041      0.41594460     -2.00309379
  C     -6.27387186      0.58621547     -2.58195274
  H     -8.80489936      0.91161873     -0.35395136
  H     -4.87467903      2.60059915     -0.23667207
  H     -6.04659827      0.10003876     -3.52374361
  H     -8.26180272     -0.20459453     -2.49606446
  C     -3.76378317      1.02312629     -4.37268659
  C     -3.28943652     -0.25349460     -4.68683896
  C     -3.32102399     -0.71907366     -5.99138816
  C     -3.81796600      0.08996877     -7.00398514
  C     -4.29219721      1.36025371     -6.70478159
  C     -4.26846934      1.82585599     -5.39911809
  H     -4.63974277      2.81946639     -5.17473339
  H     -3.83368670     -0.26900014     -8.02631537
  H     -4.68137290      1.99433124     -7.49282526
  H     -2.88922449     -0.88280090     -3.89838480
  H     -7.10681893      2.31816622      0.76702454
  C     -3.42004231      3.38887423     -2.80791374
  C     -2.11733821      3.87616991     -2.94887207
  C     -1.88197618      5.23167855     -3.11054520
  C     -2.94405335      6.12563288     -3.11386786
  C     -4.24127016      5.65582309     -2.96212478
  C     -4.48132695      4.29758724     -2.81544929
  H     -2.75990890      7.18690684     -3.23168583
  H     -5.07398490      6.34943206     -2.96208179
  H     -5.49894906      3.94226495     -2.70269809
  H     -2.94888388     -1.71191704     -6.21763450
  H     -0.86543407      5.58965644     -3.22645538
  H     -1.28173267      3.18415465     -2.92849790
  P      1.03572088      3.54859087     -0.00601736
  C     -0.37125448      4.61440054      0.44119369
  C     -0.21079281      5.89506554      0.97746336
  C     -1.31366789      6.70663590      1.19596118
  C     -2.58864739      6.25192489      0.88689936
  C     -2.76264784      4.96759418      0.39005434
  C     -1.66220787      4.15417436      0.17593743
  H     -3.44790881      6.89279740      1.04505003
  H      0.78058829      6.25594311      1.22707250
  H     -1.80146698      3.14947315     -0.20997248
  H     -3.75814383      4.59953654      0.16823819
  C      1.61650675      4.25812944     -1.58183509
  C      2.30615183      3.41737122     -2.45807203
  C      2.82206459      3.90367680     -3.64813907
  C      2.63262341      5.23347373     -3.99683626
  C      1.93018416      6.07522421     -3.14584837
  C      1.43051005      5.59486753     -1.94398448
  H      0.89187719      6.26552623     -1.28462311
  H      3.02896230      5.61116497     -4.93195883
  H      1.77578884      7.11407612     -3.41318336
  H      2.44111530      2.37176718     -2.19959656
  H     -1.17589538      7.70122619      1.60371407
  C      2.34000485      4.00201113      1.18144485
  C      2.39300820      3.29510011      2.38569705
  C      3.37649506      3.56343279      3.32302587
  C      4.32773723      4.54266526      3.06850895
  C      4.28587945      5.25278146      1.87686146
  C      3.30068024      4.98672559      0.93710833
  H      5.10205892      4.74976831      3.79761924
  H      5.02616084      6.01785161      1.67357559
  H      3.27925494      5.54767216      0.00980523
  H      3.37072304      3.24176534     -4.30769849
  H      3.40396744      3.00286593      4.25054040
  H      1.65613563      2.52392533      2.58397697
  P     -1.04405762     -3.53021687      0.09260002
  C     -2.59572704     -3.76723467      1.02542570
  C     -3.63252626     -4.60373322      0.60736407
  C     -4.75797789     -4.77800587      1.39917911
  C     -4.86048496     -4.13228589      2.62288863
  C     -3.83600117     -3.29808471      3.04900319
  C     -2.71840899     -3.11092391      2.25230436
  H     -5.73768172     -4.27454410      3.24285245
  H     -3.56378432     -5.12288015     -0.34107559
  H     -1.92700778     -2.44426860      2.58062488
  H     -3.91073001     -2.78679440      4.00192203
  C      0.06714313     -4.65987986      0.99086288
  C      1.32800061     -4.21267388      1.38333399
  C      2.17758084     -5.02726510      2.11510130
  C      1.77391021     -6.30649971      2.46897475
  C      0.51945184     -6.76544126      2.08703327
  C     -0.33104465     -5.95071989      1.35662177
  H     -1.31300446     -6.31295107      1.07292451
  H      2.43318757     -6.94485491      3.04511958
  H      0.19898141     -7.76284231      2.36456307
  H      1.64286904     -3.21052323      1.11784919
  H     -5.55552871     -5.42811678      1.05879007
  C     -1.39578702     -4.34712164     -1.49398780
  C     -2.38064398     -3.77516278     -2.30773784
  C     -2.72971011     -4.36259393     -3.51180866
  C     -2.08257860     -5.51917318     -3.93290916
  C     -1.06938682     -6.06526828     -3.15773694
  C     -0.72556131     -5.48458645     -1.94537174
  H     -2.37332737     -5.99635882     -4.86135129
  H     -0.55099000     -6.95674655     -3.49103961
  H      0.05596002     -5.92863392     -1.33974056
  H      3.15282660     -4.65740954      2.41103140
  H     -3.51132898     -3.92257011     -4.12066757
  H     -2.88607395     -2.87127264     -1.98043050
  P      5.33429089     -1.45029379     -0.35967643
  C      5.77421673      0.21123966     -0.96926364
  C      6.94463081      0.49575820     -1.67536654
  C      7.23648481      1.79750952     -2.05886793
  C      6.36308262      2.83072092     -1.74758586
  C      5.19433484      2.55830946     -1.04952182
  C      4.90276817      1.26016074     -0.66318037
  H      6.59563044      3.84766141     -2.04098544
  H      7.63685245     -0.30147867     -1.92020531
  H      3.99455686      1.05428049     -0.10486987
  H      4.51582468      3.36322660     -0.79123959
  C      4.39671257     -2.18440545     -1.74446116
  C      3.06082981     -2.52804469     -1.53727062
  C      2.32182822     -3.15416542     -2.53096611
  C      2.91403806     -3.44480336     -3.75287509
  C      4.23808429     -3.09260465     -3.97792570
  C      4.97378512     -2.46152801     -2.98649771
  H      6.00631091     -2.18946778     -3.17469260
  H      2.34673410     -3.94939737     -4.52631355
  H      4.70236818     -3.31418297     -4.93188345
  H      2.60374879     -2.32101533     -0.57708390
  H      8.15566760      2.00520722     -2.59421899
  C      6.90258684     -2.36573686     -0.34562442
  C      8.00504833     -1.79548036      0.30210493
  C      9.19156817     -2.49962365      0.42552620
  C      9.29168578     -3.79019530     -0.07747437
  C      8.19624925     -4.37653721     -0.69546597
  C      7.00711689     -3.67473988     -0.82331735
  H     10.22002767     -4.34051972      0.01950438
  H      8.26435173     -5.38804803     -1.07902734
  H      6.15636250     -4.14842153     -1.29995266
  H      1.29425501     -3.44164431     -2.33764048
  H     10.03974212     -2.04039475      0.91988086
  H      7.92981268     -0.79256824      0.70889643
  P     -3.03747888      0.75437375      3.12265702
  C     -3.54036067      2.50163014      3.19277143
  C     -4.83527155      2.95162901      2.93007979
  C     -5.15581388      4.29238615      3.08444722
  C     -4.19255612      5.19666059      3.51009327
  C     -2.89565448      4.76285041      3.75449784
  C     -2.57014943      3.42733893      3.58604202
  H     -4.45031506      6.24032419      3.64605714
  H     -5.59771745      2.25004765      2.61193041
  H     -1.55507365      3.08938773      3.76490285
  H     -2.13579893      5.46779870      4.07144445
  C     -3.33491518      0.18051761      4.82529029
  C     -2.61513307     -0.92564748      5.28384152
  C     -2.85732183     -1.45280717      6.54283261
  C     -3.80443125     -0.86704674      7.37186871
  C     -4.50264433      0.25215398      6.93939318
  C     -4.27441478      0.77173510      5.67427959
  H     -4.82470520      1.64672692      5.34759400
  H     -3.99140493     -1.27779650      8.35695619
  H     -5.23300280      0.72183617      7.58785489
  H     -1.85095370     -1.36755551      4.65311242
  H     -6.16597301      4.62875346      2.88143832
  C     -4.34991314     -0.09254707      2.17998552
  C     -4.06092928     -0.50845377      0.88022722
  C     -4.98618321     -1.21515720      0.13051245
  C     -6.22870112     -1.51372015      0.67173808
  C     -6.53501658     -1.10175356      1.96200867
  C     -5.60353038     -0.40265735      2.71454552
  H     -6.95472491     -2.07005714      0.09086933
  H     -7.50297291     -1.33511382      2.38994119
  H     -5.84694863     -0.11027686      3.72953581
  H     -2.30087833     -2.31941366      6.88007728
  H     -4.73371575     -1.53616466     -0.87405856
  H     -3.08790506     -0.28414486      0.45640390
  P      1.48103686     -0.08112460     -4.84453924
  C      0.98420091      1.51995069     -5.56178922
  C      1.82207430      2.32023750     -6.33994929
  C      1.35575269      3.51452749     -6.87146904
  C      0.04843237      3.91966617     -6.64394196
  C     -0.79675229      3.12552021     -5.87961769
  C     -0.32910523      1.94074075     -5.33649963
  H     -0.31427259      4.85006723     -7.06453977
  H      2.84086784      2.00755228     -6.53678880
  H     -0.99089295      1.32146217     -4.73919345
  H     -1.82311682      3.42881145     -5.70630050
  C      0.58920966     -1.22608465     -5.94250502
  C      0.01372422     -2.38044467     -5.41093851
  C     -0.64937893     -3.27862248     -6.23313132
  C     -0.76303289     -3.02810341     -7.59362171
  C     -0.21566427     -1.87000008     -8.12983225
  C      0.45640838     -0.97544809     -7.31272043
  H      0.87482201     -0.07023585     -7.73817891
  H     -1.28179941     -3.73194223     -8.23358330
  H     -0.31017841     -1.66314239     -9.18941288
  H      0.08165686     -2.57084069     -4.34523077
  H      2.01786866      4.12671150     -7.47274742
  C      3.23352228     -0.23559755     -5.31607148
  C      4.18228108      0.39820216     -4.50788272
  C      5.52737142      0.35373269     -4.83695610
  C      5.94919169     -0.34662316     -5.95915915
  C      5.01864220     -1.00363688     -6.75169380
  C      3.66925383     -0.94712670     -6.43601141
  H      7.00230728     -0.38363609     -6.21131427
  H      5.34146713     -1.55936841     -7.62425873
  H      2.95285351     -1.46164816     -7.06545022
  H     -1.07813171     -4.17794239     -5.80818203
  H      6.25009434      0.86453845     -4.21236186
  H      3.86191761      0.92314195     -3.61373749
  P      1.91818729     -1.59465767      6.11204583
  C      0.67508197     -2.92901003      6.06742367
  C      0.16621558     -3.53997068      7.21625101
  C     -0.78995548     -4.54047815      7.11782360
  C     -1.24870745     -4.94958303      5.87274529
  C     -0.74471791     -4.35555145      4.72383792
  C      0.20710125     -3.35292067      4.82121659
  H     -1.99169434     -5.73479919      5.79677563
  H      0.52629791     -3.23940493      8.19339101
  H      0.60401011     -2.89924215      3.91878444
  H     -1.08928210     -4.68043298      3.74866695
  C      0.88596523     -0.10947677      6.35908966
  C      1.05774275      0.97944896      5.50397802
  C      0.28451649      2.12228315      5.64038591
  C     -0.67948119      2.19167960      6.63654499
  C     -0.85582794      1.11857418      7.50003449
  C     -0.08030452     -0.02235809      7.36492501
  H     -0.22804383     -0.85390965      8.04470432
  H     -1.28841597      3.08181860      6.74368474
  H     -1.60460093      1.16881032      8.28220474
  H      1.81493559      0.93244769      4.72986008
  H     -1.17294080     -5.00653743      8.01819780
  C      2.76208559     -1.83447484      7.70336322
  C      3.34327606     -3.08073132      7.96522680
  C      4.06184323     -3.28993923      9.13065358
  C      4.22396788     -2.25579131     10.04366333
  C      3.66812297     -1.01099702      9.78430072
  C      2.94577483     -0.79682439      8.61998357
  H      4.78743624     -2.41988437     10.95457549
  H      3.79754867     -0.19943336     10.49102404
  H      2.51807457      0.18020441      8.42544953
  H      0.44494946      2.96200360      4.97342817
  H      4.49933970     -4.26223987      9.32555172
  H      3.22418882     -3.88915622      7.25121938
