#B3LYP/6-31+G(d) OPT FREQ

246, Energy =   -372.44198419 au

0 1
 Au     -0.28224062      0.21173789     -3.97103163
 Au      0.98288631      1.49881551      1.18512532
 Au      0.00155589     -0.91936386      0.92872868
 Au      2.39320278     -0.25500676     -0.51506928
 Au     -1.57435923      1.04995463      2.34460877
 Au      0.52130837      0.12965615      3.60938721
 Au      0.11156661      0.80934056     -1.41438483
 Au     -2.06145767      1.61410913     -2.66378821
  P     -0.89227038     -3.11031200      0.67182674
  C      0.32817727     -4.43502887      0.91391520
  C      0.28217186     -5.33054646      1.98268349
  C      1.29593551     -6.26084420      2.16250443
  C      2.36429351     -6.31117519      1.27833997
  C      2.42382564     -5.41977128      0.21451038
  C      1.42125793     -4.48033503      0.04092397
  H      3.15341855     -7.04015141      1.41967454
  H     -0.55162089     -5.30229463      2.67484748
  H      1.48327766     -3.76802788     -0.77572096
  H      3.25991474     -5.44783062     -0.47507359
  C     -1.53285297     -3.43540593     -1.00395299
  C     -1.98239990     -2.35148506     -1.76057834
  C     -2.48969349     -2.53283843     -3.03770584
  C     -2.55278146     -3.80842189     -3.58185085
  C     -2.10507544     -4.89507977     -2.84291377
  C     -1.59598977     -4.71364856     -1.56489187
  H     -1.23565646     -5.56896066     -1.00490236
  H     -2.94482330     -3.95451385     -4.58144374
  H     -2.14692423     -5.89222085     -3.26545389
  H     -1.92523903     -1.35266578     -1.34393604
  H      1.24809339     -6.95015003      2.99762301
  C     -2.28060299     -3.53475895      1.77385059
  C     -2.50076003     -2.74207040      2.90186768
  C     -3.55796090     -3.00028305      3.75940255
  C     -4.41538901     -4.06008301      3.49931390
  C     -4.20779279     -4.85807125      2.38178894
  C     -3.15083030     -4.59934580      1.52325461
  H     -5.24725032     -4.26156738      4.16377495
  H     -4.87642204     -5.68535839      2.17415754
  H     -3.00565586     -5.22362340      0.64911960
  H     -2.83586962     -1.67624964     -3.60525997
  H     -3.71468190     -2.36826427      4.62620670
  H     -1.83897331     -1.90668654      3.10354071
  P      1.64722561     -0.61467170      5.56277229
  C      0.81486047      0.03461144      7.04174508
  C      0.86660987     -0.59416128      8.28874926
  C      0.18201550     -0.06138788      9.37020730
  C     -0.56542753      1.09926323      9.22279841
  C     -0.62637852      1.73122613      7.98786758
  C      0.05824390      1.20150362      6.90628360
  H     -1.10409490      1.50918968     10.06900730
  H      1.43726370     -1.50800461      8.41023680
  H      0.00542640      1.69246285      5.93968630
  H     -1.21121924      2.63581636      7.86534449
  C      3.37976055     -0.07976779      5.70371230
  C      4.16424173     -0.14295740      4.54823771
  C      5.48895641      0.25971488      4.57412636
  C      6.04359672      0.75001932      5.74920824
  C      5.26887238      0.83222732      6.89787213
  C      3.94449931      0.41936108      6.87899420
  H      3.34658650      0.48601987      7.78072458
  H      7.07827645      1.07152738      5.76766367
  H      5.69673152      1.21904074      7.81541533
  H      3.72651092     -0.51213983      3.62587115
  H      0.22895221     -0.55844274     10.33217106
  C      1.69537700     -2.41049368      5.85079684
  C      0.62719699     -3.17518124      5.37349550
  C      0.59774775     -4.54634721      5.57193476
  C      1.64119037     -5.17354687      6.24050865
  C      2.71037757     -4.42434985      6.71289030
  C      2.73994347     -3.05074465      6.52145738
  H      1.62076723     -6.24628121      6.39242017
  H      3.52502884     -4.91057675      7.23688887
  H      3.58014821     -2.47279511      6.88917972
  H      6.09013204      0.19412220      3.67433851
  H     -0.24083738     -5.12641156      5.20370613
  H     -0.18413474     -2.68717181      4.84251328
  P      4.46521927     -1.45050040     -0.36170416
  C      5.99450584     -0.48063420     -0.51965972
  C      6.35161158      0.38192690      0.52244740
  C      7.46430508      1.19967705      0.41027752
  C      8.22632369      1.18183040     -0.75137986
  C      7.86857151      0.34468304     -1.79944803
  C      6.75882318     -0.47981645     -1.68821641
  H      9.09592666      1.82209310     -0.83971102
  H      5.75330528      0.40505115      1.42722230
  H      6.48797178     -1.13042294     -2.51223081
  H      8.45727251      0.33065706     -2.70945697
  C      4.66332404     -2.78624752     -1.58266587
  C      5.34475543     -3.97609018     -1.31559858
  C      5.47155180     -4.94602923     -2.29877724
  C      4.93354886     -4.73698903     -3.56179494
  C      4.25571147     -3.55779663     -3.83716641
  C      4.10947262     -2.59552739     -2.85063187
  H      3.56216325     -1.68239176     -3.06002131
  H      5.04064606     -5.49350930     -4.33022510
  H      3.83660767     -3.38666353     -4.82208921
  H      5.78017234     -4.14333400     -0.33701842
  H      7.73450958      1.85562493      1.22974831
  C      4.62739232     -2.29580285      1.24105094
  C      3.45259743     -2.69381289      1.88229871
  C      3.49528995     -3.40465410      3.07006081
  C      4.71902142     -3.70439661      3.65293460
  C      5.89469381     -3.29195771      3.04052485
  C      5.85331424     -2.59956076      1.83944246
  H      4.75369680     -4.25488907      4.58580574
  H      6.85191002     -3.51784899      3.49583197
  H      6.77754794     -2.28958988      1.36556445
  H      6.00006140     -5.86629220     -2.07875773
  H      2.57109602     -3.72464025      3.53671173
  H      2.49452350     -2.45061963      1.43618834
  P     -3.92101462      1.42056339      2.29674490
  C     -4.81481618     -0.04880157      1.69931419
  C     -5.99665080     -0.51647648      2.27752973
  C     -6.60368865     -1.66779780      1.79895587
  C     -6.04072145     -2.36700640      0.73966892
  C     -4.86439876     -1.91137568      0.15771620
  C     -4.25549081     -0.76296899      0.63752505
  H     -6.51159647     -3.27144062      0.37306821
  H     -6.43902433      0.01803151      3.11035659
  H     -3.32907353     -0.41327652      0.19300462
  H     -4.41627016     -2.45698879     -0.66471725
  C     -4.66112696      2.81848140      1.39859156
  C     -3.94629779      4.01912921      1.36645640
  C     -4.47577536      5.13460848      0.73837837
  C     -5.71860385      5.06200781      0.12167747
  C     -6.42720863      3.86893160      0.13329126
  C     -5.90440932      2.75162949      0.76648861
  H     -6.46428894      1.82313743      0.76913815
  H     -6.13111053      5.93419855     -0.37161760
  H     -7.39439130      3.80637715     -0.35183509
  H     -2.97218527      4.07626680      1.84179223
  H     -7.51892295     -2.02272314      2.25820322
  C     -4.51052648      1.61828780      4.00479462
  C     -3.78705453      0.97693556      5.01454312
  C     -4.16950297      1.08820467      6.34077178
  C     -5.28267824      1.84709439      6.67843073
  C     -6.00788830      2.49120425      5.68546518
  C     -5.62646834      2.38106657      4.35658025
  H     -5.58138610      1.93978730      7.71593932
  H     -6.87524130      3.08644321      5.94624752
  H     -6.19433656      2.89433405      3.58888963
  H     -3.91760194      6.06365017      0.73179086
  H     -3.59404367      0.58783983      7.11155413
  H     -2.91286714      0.38916614      4.75223872
  P      0.93057279     -0.92024261     -5.62948614
  C      0.44992453     -0.71549568     -7.36613459
  C      1.09139330      0.19871415     -8.20509431
  C      0.63219032      0.40505221     -9.49713775
  C     -0.47410790     -0.29036884     -9.96523062
  C     -1.12877830     -1.19034016     -9.13372086
  C     -0.67836940     -1.39458840     -7.83952831
  H     -0.82850336     -0.12998561    -10.97655158
  H      1.95598430      0.74612399     -7.84684405
  H     -1.20020635     -2.08892961     -7.18912808
  H     -1.99398957     -1.73475272     -9.49410269
  C      1.00990490     -2.71992756     -5.36600037
  C      0.90550146     -3.19558298     -4.05671087
  C      1.03088693     -4.54896428     -3.78616966
  C      1.25149312     -5.44851869     -4.82011501
  C      1.34772970     -4.98816653     -6.12615383
  C      1.23201519     -3.63376704     -6.39920935
  H      1.31161497     -3.28517018     -7.42240470
  H      1.34660534     -6.50676836     -4.60727663
  H      1.51768764     -5.68617291     -6.93758071
  H      0.72659548     -2.49601721     -3.24617158
  H      1.14230134      1.11222113    -10.14085717
  C      2.69115356     -0.46040453     -5.54203498
  C      3.10829112      0.44876400     -4.56841694
  C      4.44972865      0.76881621     -4.42293015
  C      5.39546432      0.18234654     -5.25185574
  C      4.99361969     -0.71958235     -6.22912741
  C      3.65344713     -1.04198288     -6.37369294
  H      6.44465525      0.42936015     -5.13886101
  H      5.72904469     -1.17720676     -6.88051503
  H      3.34990287     -1.75007705     -7.13670269
  H      0.95289950     -4.90487319     -2.76549880
  H      4.75410673      1.47559282     -3.65910276
  H      2.37223601      0.90991321     -3.91929142
  P     -4.12972447      2.45269935     -3.52075575
  C     -4.11163281      1.80664057     -5.22230586
  C     -5.08677673      0.95561513     -5.74200218
  C     -4.94661003      0.42374900     -7.01617309
  C     -3.83180314      0.72895111     -7.78336218
  C     -2.85091272      1.57118224     -7.27449886
  C     -2.98775254      2.10157208     -6.00298092
  H     -3.72316976      0.30956292     -8.77677043
  H     -5.95988915      0.70697851     -5.14976479
  H     -2.22005735      2.75740645     -5.60557058
  H     -1.97576309      1.81005366     -7.86821890
  C     -4.30840264      4.25033640     -3.73905227
  C     -3.90417966      5.07666838     -2.68773344
  C     -4.03630311      6.45306414     -2.78243487
  C     -4.56317660      7.02204144     -3.93440366
  C     -4.95691579      6.21047424     -4.98948117
  C     -4.83296089      4.83258547     -4.89537717
  H     -5.13997763      4.20537531     -5.72449567
  H     -4.66347468      8.09833005     -4.01044562
  H     -5.36506865      6.65174664     -5.89131736
  H     -3.48900965      4.63097881     -1.78943204
  H     -5.71331313     -0.23388945     -7.40933122
  C     -5.74251021      1.92035866     -2.86216593
  C     -5.80199003      0.72458690     -2.14284954
  C     -7.00731669      0.26918149     -1.63131549
  C     -8.16752740      1.00743388     -1.82243290
  C     -8.11858702      2.20136217     -2.52990058
  C     -6.91534939      2.65634190     -3.04765795
  H     -9.10872944      0.65259751     -1.41934744
  H     -9.02198999      2.78000982     -2.68346676
  H     -6.88648939      3.58919644     -3.59908246
  H     -3.72570710      7.08375460     -1.95703592
  H     -7.04133953     -0.66445150     -1.08167759
  H     -4.89445040      0.15044048     -1.98446197
  P      1.97504184      3.67084425      1.32570059
  C      0.74075525      4.98023724      1.07184647
  C      0.39569652      5.91589761      2.04722386
  C     -0.58918899      6.85998661      1.79452134
  C     -1.23813133      6.88297051      0.56810551
  C     -0.91575070      5.94239913     -0.40289039
  C      0.05613289      4.99035242     -0.14870913
  H     -1.99130616      7.63551102      0.36538255
  H      0.90542736      5.91228674      3.00390881
  H      0.30036370      4.25162837     -0.90579338
  H     -1.41902434      5.95398996     -1.36275231
  C      3.20679816      4.00432259      0.02233215
  C      4.09533696      2.98289045     -0.32158954
  C      5.03911727      3.16895061     -1.31811796
  C      5.11035127      4.38217004     -1.98990761
  C      4.23673964      5.40680501     -1.65506878
  C      3.29248570      5.22252702     -0.65609491
  H      2.61360296      6.02989655     -0.40774962
  H      5.84575909      4.52658240     -2.77260055
  H      4.28814209      6.35679191     -2.17432014
  H      4.04524649      2.03168151      0.19930367
  H     -0.84361606      7.58671345      2.55729094
  C      2.84599964      4.11071264      2.86334551
  C      2.64969023      3.33109199      4.00399412
  C      3.30414183      3.62808186      5.18858283
  C      4.17307624      4.70866251      5.24650923
  C      4.38175891      5.48995657      4.11727836
  C      3.72552452      5.19558695      2.93290284
  H      4.68952115      4.94067865      6.17051369
  H      5.06097110      6.33351697      4.15862344
  H      3.89740694      5.80750504      2.05439373
  H      5.72307056      2.36705636     -1.57001481
  H      3.13888850      3.01110340      6.06477902
  H      1.97663154      2.48006585      3.96092321

