#B3LYP/6-31+G(d) OPT FREQ

246, Energy =   -372.41370284 au

0 1
 Au      0.96951527      2.21594580     -1.46659540
 Au      0.45596985     -0.06317088     -0.09264513
 Au      2.10661245     -2.37441363     -0.40387058
 Au      2.27400167     -0.00877220     -2.34486766
 Au      2.65309692     -2.40355743     -3.29164478
 Au     -0.40991876      2.34012491      0.93813943
 Au     -0.46448711     -2.53976135      0.75880038
 Au     -0.03948007     -2.17724142     -2.01943800
  P     -1.24996700     -1.86115957     -4.10307426
  C     -2.27139941     -0.35035373     -4.18778364
  C     -3.12856681     -0.09826008     -5.26401946
  C     -3.83098797      1.09393872     -5.34052543
  C     -3.66255032      2.06825688     -4.36490616
  C     -2.78561298      1.84311127     -3.31447752
  C     -2.10370834      0.64013413     -3.22186823
  H     -4.20243521      3.00555979     -4.43025050
  H     -3.24117660     -0.83581954     -6.05040406
  H     -1.43360212      0.46458174     -2.38757135
  H     -2.63230488      2.60698547     -2.56189499
  C     -2.30904254     -3.20938262     -4.70655954
  C     -1.69077703     -4.37066685     -5.18588328
  C     -2.44366546     -5.38724434     -5.75108161
  C     -3.82697074     -5.27692589     -5.81433090
  C     -4.45517725     -4.16557369     -5.26902867
  C     -3.70381461     -3.14006889     -4.71430485
  H     -4.20699345     -2.27588099     -4.29579722
  H     -4.41431661     -6.06343942     -6.27284793
  H     -5.53614395     -4.08887255     -5.28513355
  H     -0.61216711     -4.46998529     -5.12432144
  H     -4.50354028      1.26800962     -6.17224456
  C     -0.16905552     -1.48896149     -5.53661640
  C      0.74227600     -0.44204631     -5.37300168
  C      1.58566563     -0.05514680     -6.40048530
  C      1.52729470     -0.70791764     -7.62434706
  C      0.61419863     -1.73540435     -7.80902911
  C     -0.23117678     -2.12158460     -6.77822224
  H      2.18666340     -0.41143495     -8.43137740
  H      0.55294108     -2.24298486     -8.76465442
  H     -0.94426712     -2.91755057     -6.95422487
  H     -1.94812724     -6.26563252     -6.14755160
  H      2.28543549      0.75770976     -6.24420856
  H      0.77897233      0.08371979     -4.42498021
  P     -1.97313553     -4.56334693      0.59631596
  C     -3.67154583     -4.24762994      1.18092951
  C     -4.69528172     -5.20161383      1.16592282
  C     -5.96667113     -4.87811533      1.61395933
  C     -6.24638633     -3.59582592      2.06691408
  C     -5.24669108     -2.63374201      2.06855481
  C     -3.97164139     -2.96012455      1.63220141
  H     -7.24300615     -3.34541901      2.41068168
  H     -4.50468353     -6.19871621      0.78694291
  H     -3.19238549     -2.20506354      1.63755526
  H     -5.45850819     -1.62655486      2.40910138
  C     -1.28347490     -5.87426319      1.66888862
  C      0.11089794     -5.96820010      1.71449479
  C      0.73470316     -6.97772896      2.43019729
  C     -0.02817312     -7.91648263      3.11106803
  C     -1.41317159     -7.82654423      3.08446228
  C     -2.03778164     -6.81270858      2.37319070
  H     -3.11898280     -6.75284230      2.37968879
  H      0.45517275     -8.71183436      3.66580874
  H     -2.01474624     -8.55047015      3.62171670
  H      0.70967777     -5.23736323      1.18032608
  H     -6.74582933     -5.63131388      1.60159596
  C     -2.24181493     -5.54596636     -0.92535008
  C     -3.42834436     -5.47064213     -1.65868437
  C     -3.63025076     -6.29750085     -2.75229570
  C     -2.63689284     -7.17647501     -3.15994478
  C     -1.42552876     -7.20707069     -2.48293476
  C     -1.23058276     -6.40114148     -1.37331158
  H     -2.80434281     -7.83182531     -4.00628418
  H     -0.63580674     -7.87437239     -2.80807336
  H     -0.28992061     -6.45254058     -0.83577996
  H      1.81714852     -7.03231275      2.45411664
  H     -4.57216972     -6.25490935     -3.28648585
  H     -4.20945024     -4.77953221     -1.36307177
  P      1.52809890      3.84709765     -3.14954874
  C      2.92294471      3.21046544     -4.12823386
  C      2.99927988      3.30365426     -5.51900546
  C      4.06511178      2.73615461     -6.20403236
  C      5.06581679      2.06740259     -5.51261195
  C      5.00614604      1.97847393     -4.12841120
  C      3.94510771      2.54579363     -3.44174089
  H      5.89185082      1.61761572     -6.05064559
  H      2.22176601      3.81849651     -6.07095152
  H      3.91321429      2.49003405     -2.35911510
  H      5.78443149      1.46073323     -3.58039870
  C      2.06050593      5.49925765     -2.60348736
  C      1.30893863      6.13917469     -1.61372346
  C      1.63211568      7.42113718     -1.20046725
  C      2.72417774      8.07443465     -1.75707986
  C      3.49193685      7.43849004     -2.72284884
  C      3.16300474      6.16017558     -3.14836881
  H      3.76246512      5.67496088     -3.90995809
  H      2.97940911      9.07636920     -1.43294974
  H      4.34924124      7.94234437     -3.15375890
  H      0.46592125      5.62281537     -1.16674625
  H      4.11158526      2.81849375     -7.28363845
  C      0.24271840      4.19994827     -4.38916940
  C     -0.28188543      3.12402181     -5.11210852
  C     -1.26236986      3.32584007     -6.06890326
  C     -1.75857459      4.60284436     -6.29689620
  C     -1.26169236      5.67524360     -5.56975447
  C     -0.26446248      5.47941186     -4.62558768
  H     -2.53037650      4.76077123     -7.04083031
  H     -1.64447009      6.67424253     -5.74345245
  H      0.12930777      6.32891181     -4.08001532
  H      1.03467033      7.90801183     -0.43819621
  H     -1.64456215      2.48252693     -6.63248739
  H      0.08879495      2.12274856     -4.92438627
  P      4.39281682     -2.46502189      0.29553641
  C      5.48825808     -1.95599396     -1.06907807
  C      6.18459622     -0.74852779     -1.09383350
  C      6.97158932     -0.41429397     -2.18769798
  C      7.05731968     -1.26924092     -3.27737164
  C      6.35811204     -2.46960147     -3.26957455
  C      5.58113978     -2.81175113     -2.17400459
  H      7.67283258     -1.00471219     -4.12897596
  H      6.12552296     -0.06849803     -0.25205033
  H      5.06785083     -3.76729164     -2.15507923
  H      6.42566029     -3.14613185     -4.11330431
  C      5.10952519     -4.06300650      0.77619457
  C      4.25937406     -5.15421879      0.96964338
  C      4.77202464     -6.39517092      1.31519616
  C      6.14144231     -6.56167459      1.46786325
  C      6.99764416     -5.48745247      1.26291214
  C      6.48957120     -4.24623391      0.91458724
  H      7.16468463     -3.41686542      0.73580268
  H      6.54305641     -7.53130804      1.73745440
  H      8.06819401     -5.61803979      1.36940449
  H      3.19000648     -5.02688451      0.83640389
  H      7.53067357      0.51439978     -2.17857551
  C      4.77420820     -1.27040660      1.61348638
  C      4.18582607     -0.00525457      1.51156495
  C      4.43312955      0.96914033      2.46325429
  C      5.25274117      0.68719799      3.54865686
  C      5.82670431     -0.56997098      3.67052126
  C      5.59505814     -1.54203494      2.70803711
  H      5.43852484      1.44661814      4.29910357
  H      6.46356906     -0.79694469      4.51761042
  H      6.05601678     -2.51723058      2.81205607
  H      4.10081954     -7.23401613      1.45990840
  H      3.98088766      1.94920786      2.36158312
  H      3.52989399      0.21382399      0.67460171
  P     -0.53556291     -2.31976854      3.35062512
  C     -1.36934290     -3.67695417      4.25740268
  C     -0.67082175     -4.77652002      4.76081690
  C     -1.33540173     -5.77971313      5.44961374
  C     -2.70994887     -5.71601547      5.62925823
  C     -3.41854185     -4.63545103      5.12215921
  C     -2.75401384     -3.62292026      4.44924098
  H     -3.22652851     -6.50350182      6.16488023
  H      0.40128791     -4.85076956      4.62145921
  H     -3.31462893     -2.77177959      4.08063519
  H     -4.49218826     -4.57364039      5.25791480
  C     -1.18139379     -0.85765002      4.25104884
  C     -1.16754371      0.38314146      3.61853091
  C     -1.53641635      1.53568646      4.29344228
  C     -1.95746433      1.46525769      5.61252116
  C     -2.00666643      0.23292856      6.24932383
  C     -1.61556519     -0.91660973      5.58060538
  H     -1.65125076     -1.86785274      6.09804107
  H     -2.25167844      2.36612268      6.13805967
  H     -2.34159747      0.16512791      7.27780251
  H     -0.85801976      0.44601567      2.58090482
  H     -0.77311794     -6.61740997      5.84546227
  C      1.14910032     -2.46953993      4.05435829
  C      2.07674775     -3.25873241      3.37157100
  C      3.32457296     -3.52159204      3.91413428
  C      3.67829353     -2.97858766      5.14087678
  C      2.77439276     -2.17542503      5.82180581
  C      1.51791827     -1.92868850      5.28825497
  H      4.65363600     -3.18377589      5.56586509
  H      3.03982695     -1.75248027      6.78381855
  H      0.81614255     -1.32107848      5.84732470
  H     -1.49659861      2.49193424      3.78517937
  H      4.01890014     -4.15907555      3.37984267
  H      1.80889303     -3.68192713      2.41028718
  P     -2.87867208      2.49615111      0.70105603
  C     -3.76407252      1.20506545     -0.25030122
  C     -4.94652659      1.45584444     -0.95128966
  C     -5.56895490      0.44466037     -1.66684365
  C     -5.02085540     -0.83040506     -1.70115337
  C     -3.84519484     -1.09154081     -1.01280305
  C     -3.22798377     -0.08288777     -0.28908121
  H     -5.50735109     -1.61796326     -2.26457257
  H     -5.38091608      2.44876207     -0.94402837
  H     -2.30956075     -0.29474897      0.24702655
  H     -3.40335060     -2.08137026     -1.04144631
  C     -3.29065488      4.04276571     -0.16752442
  C     -2.33672440      4.57435389     -1.03939428
  C     -2.59017767      5.73560755     -1.75120455
  C     -3.80177821      6.39413419     -1.59138628
  C     -4.75369179      5.88528945     -0.71852202
  C     -4.50495339      4.71760519     -0.01285152
  H     -5.25450047      4.33420275      0.66977329
  H     -4.00096540      7.30539961     -2.14276366
  H     -5.69847766      6.39939706     -0.58592735
  H     -1.38080724      4.07193679     -1.15212542
  H     -6.48506267      0.65625046     -2.20582746
  C     -3.84725828      2.57990223      2.24049414
  C     -4.48791921      1.45147161      2.75785836
  C     -5.12680933      1.50715852      3.98670257
  C     -5.12718206      2.68522537      4.72120512
  C     -4.48336556      3.81016144      4.22198966
  C     -3.84184739      3.75789998      2.99499001
  H     -5.62686261      2.72674946      5.68171657
  H     -4.47624360      4.73266975      4.79118720
  H     -3.33598939      4.63796104      2.61374097
  H     -1.84024352      6.12685864     -2.42919289
  H     -5.62385133      0.62451807      4.37267090
  H     -4.48794390      0.52557367      2.19356172
  P      0.80672512      3.93277124      2.33931752
  C     -0.32322939      5.24865547      2.88225306
  C     -0.78855721      5.36158394      4.19402289
  C     -1.74562875      6.31174066      4.52029885
  C     -2.26378001      7.14903878      3.54210777
  C     -1.82446593      7.03149833      2.22879821
  C     -0.86705224      6.08607199      1.90151057
  H     -3.01254799      7.88849801      3.79990111
  H     -0.40054368      4.70722476      4.96613588
  H     -0.53698859      5.98792098      0.87262016
  H     -2.23175778      7.67478131      1.45721227
  C      2.19478677      4.81354452      1.54170272
  C      3.02124148      4.09325608      0.67618132
  C      4.13849089      4.68128289      0.10571184
  C      4.45005955      6.00219883      0.39782905
  C      3.63494777      6.72994351      1.25406520
  C      2.51452711      6.14339152      1.82363812
  H      1.88348885      6.72371436      2.48679058
  H      5.32321250      6.46533711     -0.04614834
  H      3.87146295      7.76300649      1.48078252
  H      2.78574698      3.05883532      0.44736095
  H     -2.08906345      6.39507854      5.54491620
  C      1.63293980      3.34459594      3.85518612
  C      1.77482443      1.97360286      4.07137250
  C      2.45071684      1.50309042      5.18692894
  C      2.99071225      2.39423975      6.10267186
  C      2.86239774      3.76140183      5.89351851
  C      2.19602506      4.23521865      4.77537608
  H      3.51630794      2.02467879      6.97525736
  H      3.28943009      4.46251340      6.60101038
  H      2.11748735      5.30398427      4.61046604
  H      4.76610233      4.10639434     -0.56587498
  H      2.56263979      0.43554588      5.33341476
  H      1.35761876      1.27052121      3.35876219

