246
Energy =   -372.46939976 au
 Au      0.96953239      2.15629751     -2.72831646
 Au     -1.26731383     -1.20562004     -0.94116950
 Au      1.13401455      0.63070712     -0.51130503
 Au     -2.59126576     -2.38469718      1.05348328
 Au      2.34664734     -1.38722405      0.85327144
 Au     -0.53275082     -0.74406786      1.57343500
 Au      3.34368078      1.01526213      0.99291740
 Au     -1.17406513      1.82218951     -1.25312240
  P      1.87853817     -3.74960361      0.98757879
  C      3.27232133     -4.73861142      0.37283978
  C      4.51415131     -4.12044124      0.21414734
  C      5.60161664     -4.83288134     -0.26617240
  C      5.45997972     -6.17317984     -0.59766366
  C      4.22886975     -6.79873155     -0.44695187
  C      3.14029270     -6.08947840      0.03388303
  H      6.30842660     -6.73079194     -0.97643537
  H      4.62254852     -3.07118560      0.46885528
  H      2.18018987     -6.58123084      0.14449774
  H      4.11574615     -7.84479224     -0.70688384
  C      0.49835739     -4.37512052     -0.03182970
  C      0.53646763     -4.10337391     -1.40289527
  C     -0.45420229     -4.58138843     -2.24638251
  C     -1.51306616     -5.31865832     -1.73204560
  C     -1.57704478     -5.56969116     -0.36902457
  C     -0.57724648     -5.10560763      0.47470295
  H     -0.62455451     -5.33819190      1.53128881
  H     -2.28069421     -5.70249879     -2.39355601
  H     -2.39896084     -6.14508479      0.04119414
  H      1.36255960     -3.53135468     -1.81200063
  H      6.55950018     -4.33959501     -0.38465398
  C      1.52276507     -4.41091522      2.64712209
  C      0.41833661     -3.90589237      3.34448814
  C      0.15806335     -4.29886767      4.64708982
  C      1.00071102     -5.20464411      5.27892294
  C      2.10121669     -5.70940524      4.60147218
  C      2.36582762     -5.31269607      3.29851446
  H      0.80112275     -5.50974139      6.29931816
  H      2.76417447     -6.41337378      5.09082426
  H      3.23399962     -5.70820525      2.78434398
  H     -0.39730982     -4.38304179     -3.31047654
  H     -0.69957369     -3.89156531      5.17008044
  H     -0.23847371     -3.18933770      2.86080270
  P      2.81645356      2.51864740     -4.22202940
  C      4.21606919      1.41394177     -3.83395329
  C      5.13619339      0.96548153     -4.78514487
  C      6.17061664      0.11821643     -4.41725578
  C      6.30303195     -0.29880933     -3.09961598
  C      5.40072414      0.14809736     -2.14416699
  C      4.37388064      1.00138386     -2.51110235
  H      7.10696401     -0.96866436     -2.81808427
  H      5.04109497      1.27207547     -5.82023318
  H      3.67731043      1.35414645     -1.75981091
  H      5.49360051     -0.16556643     -1.11024619
  C      3.57853890      4.16902974     -4.14685172
  C      2.98874318      5.14643581     -3.34508121
  C      3.55620066      6.40687611     -3.23436263
  C      4.72036177      6.70659659     -3.92746593
  C      5.31441175      5.74245440     -4.73304734
  C      4.75105768      4.48107918     -4.84181494
  H      5.22381919      3.73274091     -5.46795537
  H      5.16517859      7.69097651     -3.84207023
  H      6.22000604      5.97541102     -5.28093356
  H      2.07812799      4.91210775     -2.80397190
  H      6.87533466     -0.22212581     -5.16706965
  C      2.52968493      2.22192655     -5.99218486
  C      2.41886810      0.90489936     -6.45311762
  C      2.09800816      0.64549339     -7.77589147
  C      1.87273398      1.69555280     -8.65640436
  C      1.96977275      3.00564994     -8.20810005
  C      2.28905803      3.27004538     -6.88411729
  H      1.62167454      1.49251572     -9.69072763
  H      1.79507894      3.82846534     -8.89151813
  H      2.36177424      4.29647859     -6.54266690
  H      3.08671701      7.15477057     -2.60560904
  H      2.02306583     -0.38049803     -8.11811948
  H      2.59974795      0.08042766     -5.77183340
  P     -4.36580889     -3.52199694      2.15693235
  C     -5.19664229     -4.87570997      1.27159617
  C     -5.98779325     -5.81904770      1.93568468
  C     -6.58992299     -6.84948732      1.23158020
  C     -6.40311233     -6.96061922     -0.13974322
  C     -5.61299880     -6.03505849     -0.80689482
  C     -5.01567544     -4.99805713     -0.10689850
  H     -6.86813804     -7.77162686     -0.68758908
  H     -6.12325565     -5.75030329      3.00914987
  H     -4.39576245     -4.27520215     -0.62681467
  H     -5.45717375     -6.12627971     -1.87570354
  C     -5.68078372     -2.35113098      2.61501240
  C     -5.27967715     -1.09348571      3.07410846
  C     -6.21215292     -0.15303992      3.47829569
  C     -7.56697858     -0.45496390      3.42226100
  C     -7.97935229     -1.69441931      2.95167058
  C     -7.04544546     -2.63748048      2.54777636
  H     -7.38045031     -3.60112152      2.18182417
  H     -8.29989040      0.27649989      3.74148324
  H     -9.03571353     -1.93107150      2.89990018
  H     -4.22189474     -0.85744052      3.11307991
  H     -7.20257405     -7.57246668      1.75734599
  C     -3.95568688     -4.32324160      3.74377864
  C     -2.94737257     -5.29082815      3.74117147
  C     -2.60635098     -5.96052119      4.90523776
  C     -3.26225661     -5.66623072      6.09382607
  C     -4.26249798     -4.70472657      6.10936387
  C     -4.60962615     -4.03618605      4.94355031
  H     -2.99591746     -6.18902297      7.00477126
  H     -4.78301396     -4.47584891      7.03207175
  H     -5.40120451     -3.29647829      4.96637621
  H     -5.88041729      0.81637340      3.83284243
  H     -1.82721571     -6.71373070      4.88383612
  H     -2.43336894     -5.52480862      2.81522105
  P     -3.37408182      2.26771071     -0.39259748
  C     -4.73299243      1.04646753     -0.35490942
  C     -5.94526728      1.33882613      0.27957941
  C     -6.97693147      0.41346824      0.28432318
  C     -6.81362704     -0.82381327     -0.32484184
  C     -5.61063803     -1.13244008     -0.94261311
  C     -4.58402786     -0.20060227     -0.95956231
  H     -7.62055562     -1.54693199     -0.31244708
  H     -6.07781283      2.29394668      0.77533694
  H     -3.65101207     -0.44791209     -1.45131673
  H     -5.47039682     -2.09504410     -1.42105151
  C     -4.03336601      3.68121076     -1.32379443
  C     -3.15936910      4.75277871     -1.54121008
  C     -3.55330427      5.84794033     -2.29143249
  C     -4.82318557      5.88283906     -2.85314562
  C     -5.69208997      4.81812461     -2.66108344
  C     -5.30239427      3.72273743     -1.90333086
  H     -5.99062434      2.89686159     -1.76675498
  H     -5.13136859      6.73598365     -3.44577007
  H     -6.68096646      4.83674634     -3.10426190
  H     -2.15886450      4.71741676     -1.12141686
  H     -7.91281204      0.65762402      0.77309980
  C     -3.37426080      2.82048714      1.34742064
  C     -3.15301741      1.84681484      2.32626715
  C     -3.12463712      2.18295951      3.66928339
  C     -3.30096594      3.50530860      4.05614319
  C     -3.50253863      4.48332470      3.09283884
  C     -3.53990935      4.14643114      1.74715073
  H     -3.27513054      3.77160904      5.10615781
  H     -3.63565371      5.51739946      3.38895267
  H     -3.70706597      4.91997193      1.00671001
  H     -2.86569543      6.67171327     -2.44469793
  H     -2.95623201      1.41396347      4.41496456
  H     -3.00675524      0.81416908      2.02558553
  P     -1.38743195     -1.17598757     -3.36550486
  C      0.14698430     -1.77437552     -4.15378572
  C      0.17836479     -2.50479456     -5.34398735
  C      1.38585794     -2.93713856     -5.87233682
  C      2.57954550     -2.65444283     -5.22236805
  C      2.56290698     -1.93639364     -4.03336151
  C      1.35602356     -1.50667281     -3.50570325
  H      3.52015304     -2.99748833     -5.63661375
  H     -0.74457069     -2.74119461     -5.86032966
  H      1.34911546     -0.95524638     -2.57228743
  H      3.48697081     -1.71680602     -3.51077402
  C     -1.65950247      0.44750602     -4.16290394
  C     -2.86436980      1.11536739     -3.91555999
  C     -3.11495446      2.36062928     -4.46983927
  C     -2.16297612      2.96820244     -5.27698446
  C     -0.96857623      2.31417742     -5.53884515
  C     -0.71535945      1.06441839     -4.98650558
  H      0.20894266      0.55326855     -5.22523845
  H     -2.35640194      3.94327955     -5.70795837
  H     -0.22731125      2.77302338     -6.18237067
  H     -3.62368523      0.64378555     -3.30353854
  H      1.39251122     -3.50212723     -6.79717443
  C     -2.74477335     -2.12403198     -4.11948617
  C     -3.44435214     -3.04767601     -3.34216855
  C     -4.50478256     -3.76115021     -3.87887775
  C     -4.88266043     -3.56047028     -5.19887301
  C     -4.20051873     -2.63706169     -5.97963140
  C     -3.14285598     -1.91905534     -5.44523412
  H     -5.71271741     -4.11787478     -5.61645464
  H     -4.49679391     -2.47000630     -7.00859387
  H     -2.63113468     -1.18355893     -6.05559988
  H     -4.05863889      2.85515866     -4.27073268
  H     -5.04179425     -4.47369879     -3.26450901
  H     -3.15238114     -3.20161839     -2.30883225
  P      0.36581756      0.16228134      3.61555191
  C     -0.40245153     -0.55089741      5.10180000
  C      0.25184897     -0.62900939      6.33463957
  C     -0.38209591     -1.19466094      7.43021869
  C     -1.67455100     -1.68782226      7.31383577
  C     -2.33195868     -1.61974757      6.09289736
  C     -1.69740329     -1.06220588      4.99488962
  H     -2.16745289     -2.13041785      8.17137872
  H      1.26546069     -0.25812674      6.43400714
  H     -2.20438290     -1.03122394      4.03646532
  H     -3.33830319     -2.00881432      5.99202724
  C      0.18758345      1.96664383      3.79778419
  C      0.01602723      2.73986460      2.64840595
  C     -0.08104408      4.11957600      2.73075982
  C     -0.00558989      4.74802210      3.96609800
  C      0.15513005      3.98932054      5.11818704
  C      0.24905584      2.60882359      5.03757204
  H      0.36890322      2.02544747      5.94328973
  H     -0.08081664      5.82700197      4.03129792
  H      0.20707372      4.47502035      6.08560670
  H     -0.04964430      2.25154654      1.68195572
  H      0.13791838     -1.25182148      8.37935757
  C      2.14317184     -0.09427598      3.94012582
  C      2.60263136     -1.41098851      4.04566633
  C      3.94954572     -1.68738026      4.21659892
  C      4.86704593     -0.64745408      4.28587381
  C      4.42570223      0.66416665      4.19171277
  C      3.07592275      0.94280419      4.01240454
  H      5.92148519     -0.85812575      4.41882535
  H      5.13434071      1.48132820      4.25703803
  H      2.74819249      1.97341521      3.95591133
  H     -0.22100368      4.70462074      1.82939465
  H      4.27950498     -2.71682312      4.29665553
  H      1.88690924     -2.22200571      4.01376219
  P      4.32719856      3.19998986      1.08687051
  C      3.25477287      4.57479760      0.55332238
  C      3.65164765      5.91054420      0.68137484
  C      2.80464648      6.93557451      0.29052594
  C      1.54961943      6.64868216     -0.23275975
  C      1.14367401      5.32749456     -0.36150493
  C      1.99136574      4.30324544      0.03446984
  H      0.88853653      7.45292688     -0.53332339
  H      4.62443955      6.14559719      1.09820021
  H      1.66506220      3.27472039     -0.05075932
  H      0.16545684      5.08935606     -0.76506147
  C      5.75143492      3.25470984     -0.03947934
  C      6.72138769      2.25596403      0.10446220
  C      7.79535245      2.18275029     -0.76764161
  C      7.90490958      3.09171486     -1.81199559
  C      6.93768464      4.07262563     -1.97638908
  C      5.86690341      4.15588006     -1.09880983
  H      5.11547658      4.92345974     -1.24528788
  H      8.73920897      3.02978997     -2.50065598
  H      7.01175397      4.77817023     -2.79609880
  H      6.62248562      1.52497139      0.90036633
  H      3.12386977      7.96563725      0.39816148
  C      4.91400504      3.82795165      2.69340652
  C      3.94755923      4.29611831      3.59272372
  C      4.31003332      4.70973645      4.86389338
  C      5.64041297      4.65665022      5.25983098
  C      6.60522197      4.19232802      4.37711972
  C      6.24691475      3.77571712      3.10286926
  H      5.92404755      4.97971650      6.25442294
  H      7.64526758      4.15393602      4.67952007
  H      7.01116272      3.42020621      2.42146445
  H      8.54206363      1.40781769     -0.63874705
  H      3.55086830      5.07455660      5.54645230
  H      2.90779407      4.35019645      3.28553046
