246
Energy =   -372.44154462 au
 Au     -1.60971675     -2.38575789      0.12232802
 Au      0.76007100      3.37869234     -2.66267110
 Au     -1.07883354      1.81384410      0.88375463
 Au      1.17615954      0.91341484      2.09254301
 Au      0.64578874     -2.77211425     -1.09581234
 Au      0.23366484     -0.37799295     -0.17343886
 Au      2.61854773      4.29732400     -1.13396549
 Au      1.35753716      2.11095385     -0.31908492
  P     -3.66386170     -2.57766871      1.28471922
  C     -4.95687105     -3.32894022      0.25319402
  C     -5.94131216     -4.19067637      0.73995419
  C     -6.88957820     -4.72452587     -0.11985632
  C     -6.87001392     -4.40347053     -1.47079473
  C     -5.89097486     -3.55213393     -1.96650501
  C     -4.93741655     -3.02481161     -1.11085246
  H     -7.61397993     -4.82130558     -2.13866678
  H     -5.96262641     -4.44872477      1.79261407
  H     -4.16158387     -2.37195309     -1.49860016
  H     -5.86644687     -3.30307981     -3.02133619
  C     -4.47592981     -1.11947104      2.01774424
  C     -3.81193030     -0.46359832      3.05920508
  C     -4.40810502      0.60100700      3.71314907
  C     -5.65930224      1.05277952      3.31288883
  C     -6.30937709      0.43186514      2.25632598
  C     -5.72464501     -0.64907338      1.61226444
  H     -6.24864786     -1.13699566      0.79842947
  H     -6.12580607      1.88515856      3.82668521
  H     -7.28498781      0.78054541      1.93825705
  H     -2.83365046     -0.81188833      3.37513269
  H     -7.64888050     -5.39354419      0.26793532
  C     -3.47911860     -3.64862672      2.74215642
  C     -2.36215948     -4.48364573      2.80146603
  C     -2.13185105     -5.28889738      3.90504676
  C     -3.01948354     -5.26836431      4.97222820
  C     -4.13541399     -4.44254837      4.92752989
  C     -4.36578553     -3.63638268      3.82307947
  H     -2.84051779     -5.89230390      5.83990197
  H     -4.83095426     -4.42459902      5.75854239
  H     -5.23205319     -2.98506483      3.80551958
  H     -3.90071993      1.07034966      4.54801012
  H     -1.25576229     -5.92675141      3.93405491
  H     -1.66670079     -4.49149055      1.96933044
  P      2.94009854     -2.33305660     -1.96121881
  C      3.01430874     -0.73488093     -2.83851425
  C      3.94435838      0.26875234     -2.56347751
  C      3.92918440      1.45593271     -3.28026370
  C      2.98909181      1.65772778     -4.28333580
  C      2.04821912      0.67174182     -4.55412080
  C      2.05253791     -0.50818113     -3.82821014
  H      2.99450672      2.57451984     -4.86073912
  H      4.68791448      0.12197754     -1.78858173
  H      1.30054926     -1.26470110     -4.02716115
  H      1.31072920      0.82197743     -5.33377042
  C      3.73525849     -3.48582346     -3.13608254
  C      4.30651907     -4.66411470     -2.64239500
  C      4.84593426     -5.60542537     -3.50357059
  C      4.82076418     -5.39070799     -4.87500960
  C      4.25196272     -4.22914566     -5.37755817
  C      3.70861969     -3.28650186     -4.51809626
  H      3.26948236     -2.38563243     -4.93063260
  H      5.24280194     -6.12637249     -5.54922584
  H      4.22754433     -4.05347793     -6.44684920
  H      4.33786533     -4.84180123     -1.57359559
  H      4.66096119      2.22478897     -3.06012015
  C      4.18939636     -2.17287165     -0.64289498
  C      3.76093932     -1.99991516      0.67442750
  C      4.67490360     -1.88676961      1.71005004
  C      6.03626340     -1.95198062      1.44488707
  C      6.47710373     -2.12431399      0.13867398
  C      5.56355943     -2.23308340     -0.89781317
  H      6.75155066     -1.87653276      2.25549212
  H      7.53860911     -2.17632054     -0.07336804
  H      5.91738804     -2.37442941     -1.91260670
  H      5.28733852     -6.50960182     -3.10054736
  H      4.32419427     -1.75570152      2.72753075
  H      2.69847843     -1.96039792      0.88979344
  P     -2.98851350      3.18286981      0.76290240
  C     -4.39921137      2.39554096     -0.07131927
  C     -5.73621948      2.75560318      0.10325976
  C     -6.73369437      2.11948376     -0.62234707
  C     -6.41330668      1.11234761     -1.52232213
  C     -5.08766398      0.73535570     -1.69346183
  C     -4.09009576      1.37165325     -0.97282580
  H     -7.19545951      0.61749021     -2.08576943
  H     -6.00389431      3.52630074      0.81597080
  H     -3.05550549      1.06990822     -1.10439806
  H     -4.82890716     -0.05424535     -2.38996683
  C     -2.64053746      4.65188374     -0.25787497
  C     -1.31465545      5.07725478     -0.35781430
  C     -0.98040360      6.19983845     -1.09794052
  C     -1.97385893      6.92675392     -1.73950000
  C     -3.29697605      6.52122254     -1.63773864
  C     -3.63051513      5.38683153     -0.91240421
  H     -4.66507426      5.06658601     -0.86637159
  H     -1.71760274      7.80627180     -2.31801825
  H     -4.07664586      7.08445492     -2.13698097
  H     -0.53842867      4.52168349      0.15561489
  H     -7.76743002      2.41266860     -0.48117177
  C     -3.54360763      3.90717012      2.33483221
  C     -2.96936498      3.41136096      3.50799886
  C     -3.31016389      3.94026172      4.74314524
  C     -4.22873791      4.97775028      4.82289039
  C     -4.79131552      5.49252829      3.66255894
  C     -4.44711208      4.96954628      2.42577827
  H     -4.49769050      5.39211524      5.78725036
  H     -5.49735017      6.31276934      3.71908493
  H     -4.87178520      5.40209445      1.52754278
  H      0.05663062      6.50819651     -1.16720964
  H     -2.85567779      3.54227118      5.64318340
  H     -2.24515341      2.60547177      3.44515306
  P     -0.97563371      2.89461238     -4.25552791
  C     -0.19623078      3.00577683     -5.89831175
  C     -0.49003715      2.16409850     -6.97292166
  C      0.16976271      2.31536861     -8.18358737
  C      1.12937559      3.30557391     -8.34085261
  C      1.43596702      4.14445502     -7.27793978
  C      0.78274474      3.99093232     -6.06574938
  H      1.64208652      3.41987634     -9.28854492
  H     -1.23383583      1.38301031     -6.86663237
  H      1.03452940      4.63737810     -5.23132353
  H      2.18889785      4.91583481     -7.39016873
  C     -2.40567799      4.02117504     -4.40480711
  C     -3.60036910      3.73116768     -3.73853870
  C     -4.69792016      4.56878532     -3.86041565
  C     -4.61060113      5.72625513     -4.62288933
  C     -3.41638907      6.04486706     -5.25531348
  C     -2.32237655      5.19996567     -5.14902782
  H     -1.40123552      5.45117687     -5.66269643
  H     -5.47060175      6.37767168     -4.72317931
  H     -3.33837914      6.95110068     -5.84458682
  H     -3.67757229      2.83616513     -3.13074038
  H     -0.06864262      1.65382288     -9.00843898
  C     -1.79219498      1.26144768     -4.24942557
  C     -1.27676428      0.24004253     -3.45211612
  C     -1.85782251     -1.01864558     -3.45098902
  C     -2.97264463     -1.27740817     -4.23430708
  C     -3.50529384     -0.26577283     -5.02286425
  C     -2.91957571      0.99034635     -5.03363563
  H     -3.42260580     -2.26345602     -4.23175835
  H     -4.37819531     -0.45657881     -5.63612198
  H     -3.34877291      1.77193932     -5.64967708
  H     -5.62413176      4.31446746     -3.35729856
  H     -1.43814391     -1.80355419     -2.83313862
  H     -0.40984356      0.43297441     -2.82943487
  P      3.88521729      5.04409653      0.76465332
  C      4.54673599      6.71454749      1.04157616
  C      4.47540713      7.36109467      2.27905307
  C      4.99673144      8.63658524      2.42923890
  C      5.59254947      9.27991500      1.35247878
  C      5.66544083      8.64668964      0.11904769
  C      5.14239768      7.37303423     -0.03802828
  H      5.99727636     10.27772606      1.47420465
  H      4.00687299      6.86511482      3.12177996
  H      5.19298063      6.88081620     -1.00379831
  H      6.12675596      9.14740605     -0.72419822
  C      5.18334284      3.90021042      1.33421657
  C      5.07399787      2.55455239      0.97128269
  C      6.01509045      1.62962811      1.39071386
  C      7.08811074      2.03722041      2.17361742
  C      7.21346414      3.37281017      2.53158154
  C      6.26943460      4.29975051      2.11533719
  H      6.37645235      5.34042246      2.39922324
  H      7.83036670      1.31547000      2.49401761
  H      8.05231000      3.69647863      3.13670445
  H      4.24182134      2.23282886      0.35277113
  H      4.93651067      9.13049847      3.39215264
  C      2.60559422      4.85382008      2.05325435
  C      1.41712097      5.57313739      1.89439205
  C      0.35134519      5.38747980      2.76058356
  C      0.45433110      4.47369756      3.80138830
  C      1.63240504      3.76048441      3.97565717
  C      2.69965335      3.94563114      3.10774900
  H     -0.37903038      4.32343039      4.47782417
  H      1.73202223      3.06338006      4.79958700
  H      3.61211748      3.38169588      3.26001067
  H      5.91631553      0.59019738      1.10000500
  H     -0.56273930      5.95363143      2.62199828
  H      1.33270288      6.28551087      1.08070806
  P      1.46225081     -0.25424181      4.14976638
  C     -0.02108927     -0.24409581      5.20661343
  C     -0.90068620     -1.32905438      5.25705141
  C     -2.07806351     -1.24987212      5.98624416
  C     -2.40007801     -0.08590896      6.67073897
  C     -1.53633198      1.00092157      6.62353678
  C     -0.36230556      0.92667606      5.89143911
  H     -3.31805094     -0.02696607      7.24328868
  H     -0.66420745     -2.24770206      4.73242571
  H      0.30246783      1.78239715      5.85807831
  H     -1.77661750      1.91070289      7.16166927
  C      2.84306279      0.32877960      5.17116162
  C      3.95717585      0.83770122      4.49510498
  C      5.05724704      1.30167769      5.19679383
  C      5.05653777      1.26970827      6.58527649
  C      3.95602812      0.76759324      7.26646355
  C      2.85427812      0.29702960      6.56763078
  H      1.99885845     -0.09367214      7.10672828
  H      5.91380496      1.63809160      7.13625304
  H      3.95416006      0.74089412      8.34988746
  H      3.95575128      0.86734994      3.40958435
  H     -2.74472889     -2.10453687      6.01848526
  C      1.78096580     -2.03238670      3.90729718
  C      1.06407143     -2.70276696      2.91246238
  C      1.26237411     -4.05465751      2.68412474
  C      2.18457577     -4.75901691      3.44613463
  C      2.90655192     -4.10377424      4.43368782
  C      2.70854590     -2.75017307      4.66502602
  H      2.34079444     -5.81621578      3.26628128
  H      3.62903599     -4.64864103      5.03005084
  H      3.27540444     -2.24973217      5.44156740
  H      5.91300116      1.69286937      4.65784693
  H      0.69938599     -4.55706434      1.90568711
  H      0.34353017     -2.15716642      2.31280341
  P      0.39352265     -5.15198213     -1.64176608
  C      0.74440841     -5.41360144     -3.40947127
  C      1.39500871     -6.53339342     -3.92884468
  C      1.63178627     -6.63665188     -5.29139593
  C      1.22516547     -5.62724100     -6.15302199
  C      0.58877259     -4.50162192     -5.64672723
  C      0.35743402     -4.39385361     -4.28521130
  H      1.41257456     -5.71269678     -7.21682832
  H      1.72569391     -7.32593202     -3.26779024
  H     -0.12093173     -3.50417970     -3.88779928
  H      0.27931825     -3.70302330     -6.31123093
  C     -1.27957153     -5.83804902     -1.41113283
  C     -1.64816868     -6.35137938     -0.16323302
  C     -2.95656768     -6.73580631      0.08328404
  C     -3.91858329     -6.60858147     -0.90967264
  C     -3.56553872     -6.09480382     -2.14994923
  C     -2.25827834     -5.70652386     -2.39906317
  H     -1.99503719     -5.30188613     -3.37021335
  H     -4.94243913     -6.90605962     -0.71577596
  H     -4.31349062     -5.99121223     -2.92773888
  H     -0.90149304     -6.45591738      0.61661556
  H      2.14033861     -7.51081136     -5.68113605
  C      1.46602249     -6.31081732     -0.73897052
  C      2.51369180     -5.78328525      0.01941228
  C      3.37947867     -6.61738759      0.71060677
  C      3.20039365     -7.99326582      0.66210720
  C      2.14962741     -8.52924590     -0.07074783
  C      1.28609837     -7.69750020     -0.76673233
  H      3.87551513     -8.64771133      1.20075506
  H      2.00110868     -9.60236951     -0.10119697
  H      0.46097861     -8.12405251     -1.32571947
  H     -3.22531330     -7.13410254      1.05500217
  H      4.19390866     -6.19147391      1.28551883
  H      2.64334455     -4.70709606      0.07207554
