#B3LYP/6-31+G(d) OPT FREQ

246, Energy =   -372.44166467 au

0 1
 Au     -0.53325876      0.70921456      2.81913663
 Au     -1.07413690      1.48636534     -3.22441284
 Au     -2.69007852      0.38875433     -1.38297171
 Au      1.22988089      0.15110546     -2.11152994
 Au     -2.08599683     -0.86527453      1.31978549
 Au      2.75840012     -0.19270389      0.13988906
 Au     -1.37386512     -1.18755024     -2.97928544
 Au     -0.00528677      0.41617688      0.24835752
  P      4.00262739      1.84238729      0.71992984
  C      3.15086238      3.00695883      1.83823507
  C      3.73595569      3.60286903      2.95563345
  C      3.02483210      4.51891247      3.71751848
  C      1.71756494      4.84461481      3.38409050
  C      1.10330111      4.21479027      2.30755491
  C      1.81533226      3.30358252      1.54517756
  H      1.18098215      5.59406146      3.95366214
  H      4.75660481      3.36081117      3.22789318
  H      1.33678814      2.82451152      0.69744453
  H      0.07310141      4.44074555      2.05613157
  C      4.24392797      2.85732942     -0.77707255
  C      4.50487765      2.18419910     -1.97346973
  C      4.69858363      2.88505983     -3.15183488
  C      4.62071495      4.27141422     -3.15690221
  C      4.36595141      4.95158661     -1.97479572
  C      4.18357184      4.25198267     -0.79068518
  H      3.98642122      4.79477229      0.12650886
  H      4.75913557      4.81910740     -4.08187883
  H      4.30611876      6.03389002     -1.97162611
  H      4.55818877      1.10031353     -1.97581720
  H      3.50018972      4.98872417      4.57076646
  C      5.70519558      1.69346438      1.35550955
  C      6.17513780      0.42807329      1.71272427
  C      7.46362500      0.26165572      2.19699542
  C      8.30149103      1.36044346      2.32604147
  C      7.85176072      2.62162396      1.95665178
  C      6.56517136      2.79003909      1.46965954
  H      9.30836927      1.23373980      2.70590188
  H      8.50831850      3.47945504      2.04443910
  H      6.22883389      3.77546155      1.16683781
  H      4.90664060      2.34765151     -4.06962314
  H      7.81252369     -0.72758980      2.47041156
  H      5.52568187     -0.43372806      1.59830881
  P      0.00571596      0.92928227      5.13428483
  C     -0.47436224     -0.60722928      5.98632111
  C      0.18095928     -1.07881570      7.12733008
  C     -0.24125617     -2.24510694      7.74799853
  C     -1.32346432     -2.95390637      7.24280120
  C     -1.98293158     -2.49329556      6.11193865
  C     -1.55894721     -1.33118182      5.48719252
  H     -1.65202518     -3.86451077      7.72969345
  H      1.02651409     -0.53216711      7.52943420
  H     -2.07502649     -0.97566187      4.60122230
  H     -2.82842991     -3.04228608      5.71321205
  C     -0.64486864      2.22993716      6.23158706
  C     -0.28549878      3.55376305      5.96139734
  C     -0.78076202      4.59283412      6.73220011
  C     -1.65196550      4.32526150      7.78026382
  C     -2.02174025      3.01586734      8.05341856
  C     -1.52660142      1.97268156      7.28404682
  H     -1.81958209      0.95406828      7.51007145
  H     -2.04144354      5.13686268      8.38329104
  H     -2.69991469      2.80147539      8.87121571
  H      0.39807720      3.76041923      5.14540634
  H      0.27623529     -2.60025414      8.63152333
  C      1.80417027      1.04126620      5.38162950
  C      2.63694952      0.55583859      4.37166767
  C      4.01436395      0.59777368      4.50998308
  C      4.58324648      1.14146724      5.65344230
  C      3.76655031      1.64010461      6.65906311
  C      2.38728676      1.58917601      6.52770698
  H      5.66131292      1.17928268      5.75720647
  H      4.20469195      2.07023412      7.55213130
  H      1.75861367      1.98572483      7.31653213
  H     -0.48649711      5.61291820      6.51362024
  H      4.64725605      0.20624567      3.72248650
  H      2.19646163      0.14125227      3.47061874
  P     -0.33362202     -2.77185905     -4.43628042
  C      1.08865134     -3.65646744     -3.73661906
  C      0.97031280     -4.95219794     -3.22778809
  C      2.05369828     -5.57375328     -2.62498298
  C      3.26671847     -4.90962602     -2.51555273
  C      3.38835077     -3.61128025     -2.99368477
  C      2.30565921     -2.98466637     -3.58703835
  H      4.11489986     -5.39936128     -2.05170678
  H      0.02539947     -5.47826876     -3.30385653
  H      2.40611755     -1.96666707     -3.94970991
  H      4.33085450     -3.08410870     -2.90398172
  C      0.34180524     -1.90025529     -5.88949461
  C     -0.32350835     -0.75576032     -6.33533831
  C      0.09833026     -0.08752085     -7.47375049
  C      1.19781861     -0.55151861     -8.18241363
  C      1.86619099     -1.68967365     -7.75122342
  C      1.43925108     -2.36532625     -6.61802530
  H      1.96255637     -3.25936843     -6.29894560
  H      1.53282190     -0.02787989     -9.06991604
  H      2.72193231     -2.05919765     -8.30419443
  H     -1.18252967     -0.38885887     -5.78343634
  H      1.94774736     -6.58101754     -2.23908545
  C     -1.35729731     -4.03098885     -5.26109557
  C     -2.72986498     -3.79495169     -5.35775377
  C     -3.55269464     -4.67591216     -6.04252764
  C     -3.01253143     -5.80827065     -6.63655993
  C     -1.64707771     -6.04749416     -6.55583587
  C     -0.82046255     -5.16256172     -5.88170491
  H     -3.65419467     -6.50038133     -7.16885327
  H     -1.22059756     -6.92491015     -7.02788312
  H      0.24681224     -5.34887803     -5.84287826
  H     -0.43174610      0.79802902     -7.80528206
  H     -4.61515799     -4.47454180     -6.11689936
  H     -3.14988566     -2.90799789     -4.89529359
  P     -4.16929837      1.83629756     -0.14705675
  C     -5.92908871      1.40887071     -0.28898349
  C     -6.90721523      1.89976464      0.58278382
  C     -8.23292092      1.52576224      0.42950379
  C     -8.60270378      0.65901344     -0.59111411
  C     -7.64131551      0.16821821     -1.46443108
  C     -6.31514407      0.54160777     -1.31366963
  H     -9.64022533      0.36882683     -0.70718745
  H     -6.62725199      2.57181154      1.38598331
  H     -5.56472884      0.16017386     -1.99799832
  H     -7.92389670     -0.50717189     -2.26357691
  C     -4.03384179      3.54479173     -0.76344715
  C     -2.75258024      4.05819029     -0.98982161
  C     -2.58400690      5.34615672     -1.47279541
  C     -3.69234681      6.13269571     -1.75869528
  C     -4.96812999      5.62657345     -1.55443707
  C     -5.14007216      4.34341346     -1.05702902
  H     -6.14180285      3.96088057     -0.89956289
  H     -3.55931209      7.13685982     -2.14364443
  H     -5.83673730      6.23363482     -1.78151682
  H     -1.88231962      3.44046549     -0.79027626
  H     -8.98141549      1.91284223      1.11104380
  C     -3.92063439      1.99941102      1.65079328
  C     -4.50239438      1.04684047      2.49339750
  C     -4.29587106      1.09056299      3.86299262
  C     -3.48956112      2.07696904      4.41115792
  C     -2.87415383      3.00595937      3.58125943
  C     -3.08459415      2.96782908      2.21007025
  H     -3.34153994      2.12214493      5.48311298
  H     -2.23712108      3.77367036      4.00555123
  H     -2.61018145      3.70860956      1.57667652
  H     -1.58532002      5.73687591     -1.62635411
  H     -4.77322692      0.35635818      4.50159779
  H     -5.14517243      0.28366896      2.07152964
  P     -3.59829365     -2.68197324      1.49223353
  C     -3.94149396     -3.54784120     -0.07202974
  C     -3.86855767     -4.93350551     -0.22055528
  C     -4.13553291     -5.52274911     -1.44784714
  C     -4.49565289     -4.74199628     -2.53666733
  C     -4.57431865     -3.36217941     -2.40079783
  C     -4.28536499     -2.77204018     -1.18175167
  H     -4.71138222     -5.20657789     -3.49147430
  H     -3.60519831     -5.55674113      0.62592069
  H     -4.32893972     -1.69222869     -1.08417669
  H     -4.86346590     -2.74289278     -3.24178566
  C     -5.25146005     -2.33577088      2.17365739
  C     -5.40050623     -2.21594858      3.55997772
  C     -6.62303142     -1.86637912      4.11104404
  C     -7.71283393     -1.61628661      3.28749340
  C     -7.57394289     -1.72208708      1.91096024
  C     -6.35355165     -2.07539601      1.35554826
  H     -6.26389477     -2.15589304      0.27826164
  H     -8.66799074     -1.34068648      3.71832799
  H     -8.41942905     -1.52728232      1.26116621
  H     -4.55370952     -2.40665783      4.21015378
  H     -4.06873189     -6.59962664     -1.54995732
  C     -2.93172703     -3.94892104      2.60856758
  C     -1.57979775     -3.89630899      2.95085476
  C     -1.02743604     -4.83506444      3.80813174
  C     -1.82139260     -5.84373087      4.33564932
  C     -3.16856326     -5.90824685      4.00361784
  C     -3.72309159     -4.96902076      3.14866041
  H     -1.39208842     -6.57677766      5.00835400
  H     -3.79222061     -6.69300314      4.41546308
  H     -4.77829046     -5.01901486      2.90516694
  H     -6.72388250     -1.78935219      5.18740108
  H      0.02369933     -4.77600775      4.06644801
  H     -0.95884655     -3.10705302      2.54081256
  P      0.00021626      3.20758291     -4.41064301
  C     -1.03940736      3.93881109     -5.70427668
  C     -2.18772908      4.62817822     -5.29668203
  C     -3.06205833      5.15219735     -6.23361545
  C     -2.81122275      4.98351613     -7.58978207
  C     -1.68393691      4.28836082     -8.00359946
  C     -0.80320627      3.76430713     -7.06875454
  H     -3.49690992      5.39168380     -8.32280787
  H     -2.38889966      4.75529791     -4.23729006
  H      0.07552761      3.22422633     -7.40239827
  H     -1.48631588      4.15163439     -9.06047867
  C      1.54509677      2.71457770     -5.23763791
  C      1.97366470      1.38955891     -5.17362324
  C      3.14244023      0.98622767     -5.79968179
  C      3.89968905      1.90801109     -6.50942905
  C      3.48791918      3.23361603     -6.57779417
  C      2.32326104      3.63732081     -5.94486516
  H      2.01502601      4.67528586     -5.99870061
  H      4.80929103      1.59520191     -7.00815367
  H      4.07837064      3.95748738     -7.12713906
  H      1.37680106      0.66008789     -4.63750718
  H     -3.94351597      5.69078779     -5.90509804
  C      0.49323928      4.63135526     -3.38988834
  C      0.81259466      4.41663890     -2.04752727
  C      1.17812168      5.47657894     -1.23249807
  C      1.23936041      6.76419228     -1.74874000
  C      0.93055552      6.98779430     -3.08350843
  C      0.55558901      5.93139480     -3.89888765
  H      1.52275661      7.59178112     -1.10928835
  H      0.97521070      7.99072675     -3.49163954
  H      0.29899530      6.11940907     -4.93498772
  H      3.45522266     -0.04985723     -5.73911293
  H      1.41359668      5.29849750     -0.18990064
  H      0.76701486      3.41163889     -1.64032359
  P      3.05989502     -2.45753980      1.02144591
  C      1.70700599     -3.65001209      0.69590308
  C      1.60707013     -4.88573129      1.34298021
  C      0.56058415     -5.74904657      1.05724414
  C     -0.41760666     -5.38791112      0.14030718
  C     -0.34450457     -4.15460711     -0.49044760
  C      0.71372207     -3.30167419     -0.21969210
  H     -1.23642855     -6.06338890     -0.07693558
  H      2.34545870     -5.17320262      2.08217219
  H      0.76960096     -2.34901666     -0.73194156
  H     -1.10847408     -3.85321153     -1.19895260
  C      3.30908490     -2.66126311      2.81561214
  C      4.58636409     -2.71777591      3.37851563
  C      4.74832461     -2.80043282      4.75352777
  C      3.63886335     -2.83045576      5.58651737
  C      2.36473176     -2.76032038      5.03915260
  C      2.19982146     -2.65859249      3.66746136
  H      1.20158321     -2.58443667      3.24874259
  H      3.76504523     -2.90503041      6.66013121
  H      1.49497283     -2.78008655      5.68474817
  H      5.46008461     -2.71012636      2.73691724
  H      0.50273596     -6.70649834      1.56180495
  C      4.55487093     -3.21482362      0.30617561
  C      5.33903056     -2.43252008     -0.54460903
  C      6.50559142     -2.93441525     -1.10116784
  C      6.90336831     -4.23343402     -0.81833156
  C      6.13242761     -5.02387017      0.02444053
  C      4.96939415     -4.52031712      0.58601250
  H      7.81345429     -4.63004535     -1.25244005
  H      6.44083915     -6.03792860      0.25056175
  H      4.38311935     -5.14663394      1.24785251
  H      5.74626847     -2.84757670      5.17373370
  H      7.10273685     -2.30965452     -1.75507191
  H      5.02755681     -1.41793561     -0.76989436

