#B3LYP/6-31+G(d) OPT FREQ

246, Energy =   -372.44409155 au

0 1
 Au      0.15402040     -1.08538702     -3.28705176
 Au     -1.42823681      1.92576373      2.33183315
 Au     -1.84506972     -0.84054509     -1.66352437
 Au      0.56247092     -2.03688194     -0.64102661
 Au      2.38260131     -0.37340649      0.69823582
 Au     -0.39781316      0.04574786      0.84822309
 Au     -1.81717752      1.88012017     -0.34064653
 Au      0.90814533     -2.09022942      2.11207125
  P      1.56049719     -2.34922948      4.42609333
  C      2.07284173     -3.93199411      5.16256439
  C      3.32650497     -4.14502678      5.73896821
  C      3.65215590     -5.38693223      6.26332426
  C      2.73382159     -6.42710160      6.22308947
  C      1.48415071     -6.22612024      5.64956509
  C      1.15866871     -4.99024825      5.11516136
  H      2.99077707     -7.39474131      6.63734355
  H      4.04837027     -3.33770629      5.78062794
  H      0.18694616     -4.83918949      4.65611511
  H      0.76421644     -7.03542940      5.61355257
  C      0.46381104     -1.59606685      5.66757502
  C     -0.26259558     -0.46073384      5.29498998
  C     -1.12864861      0.14671418      6.18881035
  C     -1.28855526     -0.37226378      7.46671106
  C     -0.57626426     -1.50101588      7.84588056
  C      0.29387623     -2.11084915      6.95447425
  H      0.84469701     -2.99273413      7.25997729
  H     -1.97165209      0.10182543      8.16175217
  H     -0.69809654     -1.91190116      8.84125872
  H     -0.15312375     -0.06016860      4.29170356
  H      4.62816732     -5.54044620      6.70874912
  C      3.04655555     -1.29726105      4.46902872
  C      4.09860707     -1.63246100      3.60844436
  C      5.22589480     -0.83190653      3.52408446
  C      5.31042908      0.33066954      4.27969106
  C      4.26590913      0.68254497      5.12188235
  C      3.14206077     -0.12532772      5.21948847
  H      6.18771987      0.96264481      4.20720993
  H      4.32379468      1.59263911      5.70818710
  H      2.33505895      0.16074660      5.88401105
  H     -1.68570750      1.02528522      5.88552807
  H      6.04049804     -1.11437118      2.86713344
  H      4.03016929     -2.53468112      3.00956544
  P      1.34316935     -1.38580170     -5.35620582
  C      1.69603240     -3.10512371     -5.85539210
  C      0.75065058     -3.86925019     -6.54393673
  C      0.99929323     -5.20079624     -6.83860634
  C      2.18694843     -5.79706375     -6.43744327
  C      3.13035528     -5.05063363     -5.74545752
  C      2.88752437     -3.71719550     -5.45681697
  H      2.37645729     -6.83955498     -6.66405337
  H     -0.18353189     -3.42010794     -6.86130999
  H      3.63468080     -3.14068725     -4.92538386
  H      4.06171836     -5.50553498     -5.42764470
  C      2.93157465     -0.52162312     -5.55473201
  C      3.19357945      0.55345259     -4.70383590
  C      4.37872940      1.26571527     -4.80114621
  C      5.32581724      0.90597540     -5.75071531
  C      5.07806656     -0.16194617     -6.60302160
  C      3.89004144     -0.87083196     -6.51076583
  H      3.70825264     -1.70321507     -7.18077806
  H      6.25572317      1.45739670     -5.82635826
  H      5.81413753     -0.44421599     -7.34675718
  H      2.45789600      0.82843480     -3.95647065
  H      0.25894992     -5.77575631     -7.38278076
  C      0.31511117     -0.78476322     -6.73341736
  C     -1.06076771     -1.02374810     -6.65985060
  C     -1.90089585     -0.64287284     -7.69539679
  C     -1.37974774      0.00280379     -8.80923104
  C     -0.01892239      0.26596258     -8.88104985
  C      0.82541141     -0.12816153     -7.85398390
  H     -2.03514430      0.30334086     -9.61811227
  H      0.39088961      0.77580396     -9.74523322
  H      1.88737431      0.07677854     -7.92600308
  H      4.56239885      2.10074584     -4.13427435
  H     -2.96259691     -0.85273231     -7.63302169
  H     -1.47210852     -1.51077360     -5.78144567
  P     -2.27926857      3.34678343      4.02020650
  C     -3.68391465      2.61267055      4.91176084
  C     -3.82291244      2.59968990      6.30040917
  C     -4.90386499      1.95895018      6.88940228
  C     -5.85593986      1.32454065      6.10422791
  C     -5.72771599      1.33093694      4.72073088
  C     -4.64770719      1.96542527      4.13102189
  H     -6.69696040      0.82346050      6.56872622
  H     -3.08654013      3.09362874      6.92399717
  H     -4.54234044      1.96397048      3.05065958
  H     -6.46703052      0.83675201      4.10033510
  C     -2.96549785      4.88373900      3.32862986
  C     -2.27626305      5.47262856      2.26553869
  C     -2.75314434      6.62536734      1.66410632
  C     -3.92902203      7.20735054      2.11938701
  C     -4.62118266      6.63273193      3.17657301
  C     -4.14696408      5.47628875      3.77809048
  H     -4.70024893      5.02870859      4.59569937
  H     -4.30797473      8.10573458      1.64653198
  H     -5.53976385      7.08416543      3.53317155
  H     -1.35944057      5.01395569      1.90957737
  H     -5.00091827      1.95615339      7.96890887
  C     -1.10697394      3.90862851      5.29128057
  C      0.11099053      3.23508832      5.41082805
  C      1.03484934      3.61087435      6.37368856
  C      0.75782619      4.67521094      7.22107872
  C     -0.44239362      5.36326189      7.09981246
  C     -1.37078559      4.98547429      6.14214983
  H      1.47948427      4.97160129      7.97319397
  H     -0.65725371      6.19892253      7.75563410
  H     -2.30270572      5.53178925      6.04790394
  H     -2.21023110      7.06516568      0.83499034
  H      1.97099523      3.07093765      6.46282163
  H      0.33238640      2.41010023      4.74142935
  P     -2.90682750      3.46777737     -1.69470745
  C     -4.31312096      4.21940478     -0.82006726
  C     -4.89606166      5.42470431     -1.22254888
  C     -5.96110070      5.95876856     -0.51452580
  C     -6.45635428      5.30308992      0.60526450
  C     -5.87850383      4.11161668      1.02045019
  C     -4.81347599      3.57663033      0.31333335
  H     -7.28785879      5.72436512      1.15779304
  H     -4.50911570      5.94918457     -2.08901072
  H     -4.36245254      2.64516332      0.63870147
  H     -6.25561092      3.59753658      1.89727621
  C     -3.54905106      2.93400676     -3.30949247
  C     -2.65815130      2.27182467     -4.16045423
  C     -3.07768574      1.79924190     -5.39157789
  C     -4.39995519      1.96263175     -5.78483780
  C     -5.29576103      2.60701989     -4.94400128
  C     -4.87527391      3.09245140     -3.71409055
  H     -5.58147066      3.60151597     -3.06836716
  H     -4.72999683      1.58587083     -6.74584159
  H     -6.32881352      2.73562174     -5.24546098
  H     -1.62701741      2.13066828     -3.85115941
  H     -6.40551198      6.89308193     -0.83710278
  C     -1.85570228      4.90094312     -2.07900062
  C     -0.87417918      5.25466857     -1.15025996
  C     -0.08156525      6.37355350     -1.34893567
  C     -0.24938398      7.14681884     -2.49071460
  C     -1.20622576      6.79161480     -3.43198826
  C     -2.00741702      5.67769366     -3.22964855
  H      0.36980024      8.02189039     -2.64891905
  H     -1.33304228      7.38754241     -4.32829211
  H     -2.75033815      5.40656300     -3.97100919
  H     -2.37242905      1.29745719     -6.04391617
  H      0.67272639      6.63700404     -0.61636342
  H     -0.72963207      4.63869448     -0.26908509
  P      1.81374207     -4.02669355     -1.36044832
  C      3.41548311     -3.58023120     -2.11519499
  C      4.39240309     -4.53163945     -2.42440534
  C      5.60117656     -4.14408944     -2.98073457
  C      5.85606480     -2.80262025     -3.23622478
  C      4.89678378     -1.84820107     -2.92902886
  C      3.68729920     -2.23603594     -2.37305434
  H      6.80111245     -2.50041180     -3.67192918
  H      4.20651536     -5.58100066     -2.22771288
  H      2.94044266     -1.48517682     -2.13839925
  H      5.08773955     -0.79935638     -3.12401164
  C      1.08658198     -5.28971760     -2.45625722
  C     -0.00324434     -4.91596383     -3.24580617
  C     -0.62084545     -5.83123394     -4.08244048
  C     -0.15482271     -7.13741655     -4.14320716
  C      0.92808572     -7.52193800     -3.36374845
  C      1.54369758     -6.60927026     -2.52165525
  H      2.37717418     -6.92644294     -1.90557852
  H     -0.63652631     -7.85582220     -4.79587110
  H      1.29334707     -8.54139444     -3.40705521
  H     -0.37188977     -3.89602450     -3.19889356
  H      6.34833607     -4.89305391     -3.21582029
  C      2.33010530     -4.95191607      0.11962755
  C      3.50306926     -4.60899992      0.79903790
  C      3.84101921     -5.24152605      1.98530052
  C      3.00615140     -6.21417464      2.51834166
  C      1.82271228     -6.53995035      1.86974232
  C      1.48250595     -5.91048296      0.68269981
  H      3.27551634     -6.71467169      3.44083666
  H      1.16204524     -7.28986124      2.28934228
  H      0.55562950     -6.16901823      0.18236285
  H     -1.46701673     -5.52393836     -4.68629540
  H      4.76311095     -4.97946515      2.49160567
  H      4.16086289     -3.84995718      0.38959988
  P      3.85579085      1.36345342      0.12900366
  C      3.06320982      2.50195559     -1.04847226
  C      3.51263606      3.81084486     -1.24654580
  C      2.88652458      4.63468913     -2.16940694
  C      1.79540696      4.17376232     -2.89427558
  C      1.32103211      2.88703645     -2.68253378
  C      1.95381879      2.05837255     -1.76929065
  H      1.30894166      4.82092844     -3.61447404
  H      4.34954270      4.18776229     -0.66959572
  H      1.58156390      1.05272557     -1.61003508
  H      0.45773806      2.52392607     -3.22874396
  C      5.44165590      0.88228869     -0.61292213
  C      5.98910524     -0.33833413     -0.20666052
  C      7.19014589     -0.78523562     -0.73273535
  C      7.85322300     -0.02571773     -1.68770410
  C      7.31138328      1.18071968     -2.11041277
  C      6.11509749      1.63588370     -1.57697833
  H      5.70248399      2.57937726     -1.91477001
  H      8.78898847     -0.37670050     -2.10630145
  H      7.82274792      1.77302620     -2.86030955
  H      5.45866226     -0.94310829      0.52154726
  H      3.25033966      5.64429981     -2.32078823
  C      4.25503533      2.44797220      1.53018442
  C      3.18558460      2.88519200      2.31896992
  C      3.40814579      3.70058290      3.41529636
  C      4.70359640      4.07824711      3.74790993
  C      5.77202856      3.63974660      2.97821203
  C      5.55246910      2.82838417      1.87385967
  H      4.87861204      4.71318020      4.60837582
  H      6.78342793      3.93171123      3.23567771
  H      6.39132149      2.49001092      1.27661831
  H      7.60265096     -1.73249020     -0.40544207
  H      2.57024302      4.03997093      4.01395823
  H      2.17410410      2.58189194      2.06537623
  P     -3.82407487     -1.46444850     -0.42181035
  C     -4.46771287     -3.04330164     -1.06509106
  C     -5.30781183     -3.87403177     -0.31773901
  C     -5.75309783     -5.07537851     -0.84451608
  C     -5.36778103     -5.46556782     -2.12083966
  C     -4.53551306     -4.64808733     -2.87216351
  C     -4.09049002     -3.44463956     -2.34766347
  H     -5.71606929     -6.40740759     -2.52813210
  H     -5.60794920     -3.58181035      0.68225273
  H     -3.43798715     -2.80713304     -2.93476638
  H     -4.22971854     -4.94742883     -3.86825991
  C     -5.31713021     -0.45480819     -0.13705327
  C     -5.58978616      0.56679198     -1.05015244
  C     -6.72704394      1.34865104     -0.91709487
  C     -7.60086046      1.13019926      0.13872112
  C     -7.33878398      0.11932361      1.05388074
  C     -6.21020593     -0.67362315      0.91579821
  H     -6.02548529     -1.46740539      1.63033590
  H     -8.48642340      1.74525192      0.24689312
  H     -8.02108487     -0.05862627      1.87713859
  H     -4.90394433      0.74734852     -1.87190998
  H     -6.40268145     -5.71177922     -0.25483824
  C     -3.24950624     -1.94127538      1.23886268
  C     -2.50512743     -3.11686701      1.37453165
  C     -1.96449222     -3.47600324      2.60012376
  C     -2.16811787     -2.66753838      3.71332444
  C     -2.88158839     -1.48464426      3.58491863
  C     -3.40358196     -1.11539868      2.35405695
  H     -1.76888421     -2.96199790      4.67637774
  H     -3.03540799     -0.84422585      4.44574998
  H     -3.94906250     -0.18318266      2.26441765
  H     -6.92869425      2.13379026     -1.63656063
  H     -1.41039978     -4.40268562      2.69394113
  H     -2.35716929     -3.76032739      0.51418722

