246
Energy =   -372.43254043 au
 Au     -0.86849831      0.76668277     -3.09804890
 Au     -1.79742787      2.64767480      1.22513275
 Au     -0.16819066      1.60582894     -0.69382495
 Au      1.61534431      1.54364358     -2.59898931
 Au      2.23863393     -0.57899957      1.81724405
 Au      0.25800600     -2.26413935      1.37615188
 Au     -0.35642588      0.60701084      1.82532980
 Au      0.33571521     -1.15365241      3.81303484
  P      3.70782479      1.28878566      1.94158740
  C      2.70444403      2.77678018      1.65431655
  C      1.93097223      3.31249900      2.68679771
  C      1.03575725      4.34241557      2.43979254
  C      0.89095125      4.84804884      1.15400065
  C      1.64993088      4.32011653      0.11722844
  C      2.54565534      3.29014733      0.36413751
  H      0.19124382      5.65289768      0.96202659
  H      2.03389071      2.91831688      3.69146952
  H      3.13297367      2.88538695     -0.45269810
  H      1.54636965      4.71170564     -0.88795251
  C      5.18508601      1.51008578      0.90030209
  C      5.83315973      0.36947936      0.42321240
  C      6.99821514      0.47720384     -0.32050958
  C      7.53431477      1.72823324     -0.58988855
  C      6.90034002      2.86934605     -0.11589862
  C      5.73193489      2.76574702      0.62105984
  H      5.24518588      3.66383817      0.98373662
  H      8.44719206      1.81547081     -1.16713460
  H      7.31771590      3.84799272     -0.32218119
  H      5.41994185     -0.60916372      0.64214936
  H      0.44794387      4.75123057      3.25344436
  C      4.37345253      1.48886369      3.62205752
  C      4.35944094      0.38711899      4.47948795
  C      4.92505400      0.46647470      5.74197639
  C      5.51241505      1.65106954      6.16378947
  C      5.51965639      2.75868403      5.32551011
  C      4.95688510      2.68074177      4.06196118
  H      5.96313340      1.71251275      7.14722383
  H      5.97137550      3.68676635      5.65594078
  H      4.97239247      3.54772381      3.41107542
  H      7.48667485     -0.41748871     -0.68881897
  H      4.90733437     -0.39721155      6.39661576
  H      3.90368881     -0.54009210      4.14772399
  P     -2.16858087     -2.95957154      1.42739541
  C     -2.88707813     -4.36966129      0.50691259
  C     -3.68962562     -5.35351809      1.08444056
  C     -4.26323511     -6.34028909      0.29580907
  C     -4.05172042     -6.35197136     -1.07527091
  C     -3.25270927     -5.37726219     -1.65913012
  C     -2.66952019     -4.39662779     -0.87406349
  H     -4.50599840     -7.12030444     -1.68949951
  H     -3.87264289     -5.34889690      2.15252249
  H     -2.03770624     -3.64113337     -1.33209786
  H     -3.07977333     -5.38548677     -2.72912078
  C     -3.36122977     -1.68238468      0.88317028
  C     -2.92004480     -0.67107278      0.03156502
  C     -3.79452739      0.29703059     -0.43972754
  C     -5.13179591      0.25958275     -0.07274634
  C     -5.59234892     -0.76072900      0.75005085
  C     -4.71893920     -1.73149305      1.21540533
  H     -5.09699589     -2.53964637      1.83119832
  H     -5.81940671      1.00996426     -0.44418428
  H     -6.64020420     -0.80556168      1.02314503
  H     -1.88238894     -0.65104518     -0.27771164
  H     -4.88436280     -7.09932808      0.75690667
  C     -2.58963389     -3.28303738      3.16945464
  C     -2.02259307     -4.41050982      3.77577911
  C     -2.22539019     -4.66969982      5.12129578
  C     -2.98484581     -3.79827353      5.89081359
  C     -3.52468365     -2.65970352      5.31081256
  C     -3.32694505     -2.40132058      3.96238028
  H     -3.14566177     -4.00115586      6.94301131
  H     -4.10392737     -1.96542639      5.90878967
  H     -3.75452904     -1.50669964      3.52598668
  H     -3.43250281      1.06923887     -1.10819597
  H     -1.78590542     -5.55179911      5.57241288
  H     -1.41703738     -5.08864983      3.18374639
  P     -3.34360058      4.29780560      0.52372228
  C     -3.54134024      3.98294967     -1.25832457
  C     -4.70418885      3.44736524     -1.81367458
  C     -4.74125614      3.07653600     -3.15063289
  C     -3.62143500      3.24249412     -3.95216041
  C     -2.45962138      3.78342736     -3.41272599
  C     -2.41735842      4.14164494     -2.07508377
  H     -3.65188093      2.95541714     -4.99679556
  H     -5.58760152      3.32257284     -1.19807508
  H     -1.50430081      4.55117050     -1.65577656
  H     -1.58633309      3.93371023     -4.03680585
  C     -2.90017480      6.05694101      0.62983994
  C     -2.27510118      6.49735862      1.80067105
  C     -1.90878957      7.82591865      1.94613273
  C     -2.15631261      8.72996009      0.92126874
  C     -2.77336634      8.30213197     -0.24612015
  C     -3.14476035      6.97431387     -0.39453084
  H     -3.62382157      6.64760736     -1.31040025
  H     -1.86683641      9.76822964      1.03285620
  H     -2.96844489      9.00569278     -1.04716090
  H     -2.08222659      5.79051468      2.60155643
  H     -5.64916814      2.65452829     -3.56637271
  C     -5.02820064      4.19031561      1.19636563
  C     -5.41644691      2.98797013      1.79254672
  C     -6.68935692      2.83865429      2.31929012
  C     -7.58780568      3.89600935      2.26660344
  C     -7.20971762      5.09851170      1.68403294
  C     -5.93892212      5.24843227      1.15069071
  H     -8.58183496      3.78415548      2.68338278
  H     -7.90876675      5.92582963      1.64533916
  H     -5.65032888      6.19068620      0.69858961
  H     -1.42733185      8.15570986      2.85951241
  H     -6.97748354      1.89791227      2.77476409
  H     -4.70942649      2.16588497      1.83709992
  P     -2.13186085     -0.32867667     -4.76927122
  C     -1.42755124     -1.92330279     -5.31980296
  C     -1.75850718     -3.14632558     -4.73490139
  C     -1.12372211     -4.31469917     -5.12879241
  C     -0.14702768     -4.28434275     -6.11365749
  C      0.18997278     -3.07516564     -6.70691782
  C     -0.43736351     -1.90547046     -6.30878808
  H      0.34629467     -5.19875755     -6.42104965
  H     -2.52882463     -3.19761607     -3.97545293
  H     -0.16106998     -0.96766752     -6.77795216
  H      0.94542714     -3.04070842     -7.48342520
  C     -2.23024057      0.57839102     -6.33901621
  C     -1.59682749      1.81742089     -6.44960040
  C     -1.61667072      2.51953932     -7.64558396
  C     -2.27076428      1.98944165     -8.74890422
  C     -2.89363041      0.75133777     -8.65623229
  C     -2.87036798      0.04574221     -7.46409556
  H     -3.33886541     -0.93035391     -7.40591809
  H     -2.28885440      2.53678831     -9.68392652
  H     -3.39582599      0.32982104     -9.51915873
  H     -1.07322167      2.22494101     -5.59162587
  H     -1.40146415     -5.25511908     -4.66599632
  C     -3.84007938     -0.71386496     -4.27706542
  C     -4.02320922     -1.43711022     -3.09368358
  C     -5.29476470     -1.77119609     -2.65647681
  C     -6.40748027     -1.35038899     -3.37204906
  C     -6.23986037     -0.59078755     -4.52142056
  C     -4.96712085     -0.27634455     -4.97465371
  H     -7.40292711     -1.60503333     -3.02794209
  H     -7.10496195     -0.24386473     -5.07448568
  H     -4.85416476      0.31508465     -5.87558408
  H     -1.11877853      3.47977340     -7.71483275
  H     -5.41554340     -2.35073219     -1.74815675
  H     -3.16169789     -1.72547883     -2.50094587
  P      1.37728481     -3.82749213     -0.25740665
  C      1.85498429     -3.30801174     -1.94285601
  C      2.83454073     -3.98841823     -2.67324949
  C      3.17994965     -3.57140853     -3.94911124
  C      2.56045388     -2.46377468     -4.51066627
  C      1.58825321     -1.78370956     -3.79253628
  C      1.23380094     -2.20088894     -2.51994368
  H      2.83495041     -2.12876728     -5.50400697
  H      3.33158858     -4.84748412     -2.23697025
  H      0.46780019     -1.66549558     -1.96871997
  H      1.09410771     -0.92597624     -4.23040022
  C      0.47901057     -5.38870338     -0.53229730
  C      0.00004673     -6.06314922      0.59618610
  C     -0.70153252     -7.25030955      0.46603605
  C     -0.94449582     -7.77785997     -0.79557279
  C     -0.48664812     -7.11054322     -1.92298486
  C      0.21757119     -5.92232138     -1.79563698
  H      0.56608277     -5.41006182     -2.68509546
  H     -1.49545279     -8.70506402     -0.89925888
  H     -0.67835473     -7.51552319     -2.91000456
  H      0.18525224     -5.64917827      1.58241414
  H      3.94092553     -4.10844386     -4.50307520
  C      2.98991981     -4.39488602      0.39434168
  C      3.93139571     -3.41978988      0.73272939
  C      5.17541970     -3.76682210      1.23064339
  C      5.50077928     -5.10629723      1.40314838
  C      4.57504992     -6.08596288      1.07581787
  C      3.32922779     -5.73696461      0.57381133
  H      6.47192962     -5.38305614      1.79586490
  H      4.82148111     -7.13276206      1.21044054
  H      2.61949669     -6.51597806      0.32198214
  H     -1.06291507     -7.76273433      1.35006349
  H      5.88861551     -2.99223144      1.48867534
  H      3.67920819     -2.37075069      0.60615128
  P     -0.14271390     -0.42121517      6.02490666
  C     -0.48596137     -1.76087700      7.20360244
  C      0.26470094     -2.93322519      7.06893675
  C      0.06787019     -4.00085142      7.92965275
  C     -0.89098471     -3.91619753      8.93070770
  C     -1.65155576     -2.76210167      9.06459865
  C     -1.45268383     -1.68939797      8.20819383
  H     -1.04873402     -4.75112145      9.60306266
  H      1.00441115     -3.00407598      6.27778324
  H     -2.05680789     -0.79659143      8.31976323
  H     -2.40449941     -2.69468252      9.84117110
  C     -1.59106214      0.67973364      6.05292159
  C     -2.42304758      0.73366824      4.93432552
  C     -3.52802934      1.56878018      4.90694335
  C     -3.81871710      2.36867747      6.00299676
  C     -2.99499482      2.33274592      7.12035301
  C     -1.88739896      1.49951401      7.14708455
  H     -1.23966047      1.49601172      8.01628727
  H     -4.68167693      3.02394170      5.98372142
  H     -3.21305493      2.96139380      7.97580126
  H     -2.19351229      0.11751693      4.07276821
  H      0.66049557     -4.90114629      7.81633342
  C      1.11582409      0.60487549      6.84941682
  C      1.32620314      1.89940830      6.36221411
  C      2.26615812      2.72856182      6.95033251
  C      3.01583924      2.27360140      8.02809485
  C      2.83182820      0.98262939      8.50293954
  C      1.89128860      0.14873845      7.91578293
  H      3.74355622      2.92613355      8.49576225
  H      3.41891787      0.62263942      9.33979996
  H      1.74966552     -0.85553030      8.29835526
  H     -4.16020653      1.59564436      4.02690542
  H      2.41230539      3.73303754      6.56985221
  H      0.73164496      2.25956365      5.52882645
  P      3.64521630      1.62848152     -3.79758458
  C      4.64426028      0.11344522     -3.64894938
  C      5.47766567     -0.35899762     -4.66554504
  C      6.22170311     -1.51505335     -4.48389461
  C      6.13912290     -2.21830937     -3.28995836
  C      5.30166422     -1.76607675     -2.27874592
  C      4.55866341     -0.60991083     -2.45723295
  H      6.71908711     -3.12284203     -3.14947276
  H      5.53944374      0.17581372     -5.60641362
  H      3.89815064     -0.26291204     -1.66869377
  H      5.21973215     -2.32455286     -1.35327345
  C      4.79977050      2.97186017     -3.38478966
  C      4.25494732      4.16984966     -2.91556379
  C      5.07182848      5.24834222     -2.61703142
  C      6.44614208      5.14522150     -2.78806974
  C      6.99921405      3.95737451     -3.24815550
  C      6.18439701      2.87331082     -3.53868863
  H      6.62705228      1.94540747     -3.88272251
  H      7.08603942      5.98993379     -2.56201115
  H      8.07151812      3.87274561     -3.38130566
  H      3.17997956      4.25341987     -2.79159364
  H      6.86640920     -1.86915680     -5.27981706
  C      3.38148166      1.81733847     -5.58904444
  C      2.17841835      1.35406043     -6.12725389
  C      1.91977965      1.46054304     -7.48397299
  C      2.85992848      2.04011302     -8.32525414
  C      4.05451661      2.51536314     -7.80174858
  C      4.31548670      2.40807544     -6.44411023
  H      2.65817769      2.12779593     -9.38630014
  H      4.78793985      2.97616836     -8.45318119
  H      5.24639388      2.79478906     -6.04522437
  H      4.63535760      6.17152410     -2.25372331
  H      0.97880100      1.09810550     -7.88278808
  H      1.43554367      0.91192621     -5.47158570
