246
Energy =   -372.43305330 au
 Au     -2.62976801     -0.78403754      0.17189490
 Au      1.05502002      1.30654671     -1.97274737
 Au     -2.09323018      1.33254937     -1.63531187
 Au      2.06021337      1.75287008      0.54602949
 Au     -0.81012191     -2.09967484      1.69102066
 Au     -2.72501637     -1.01119042     -2.54634715
 Au     -3.10880240     -1.14546151      2.71308286
 Au     -0.02535265      0.24548756      0.30369764
  P      2.90156160     -0.45113439     -2.70651932
  C      4.03206263      0.16890369     -3.99899999
  C      5.14029975      0.92479938     -3.60024528
  C      6.02650695      1.42959420     -4.53739143
  C      5.81278141      1.20048985     -5.89055195
  C      4.69499964      0.48685986     -6.30018590
  C      3.80459259     -0.01727265     -5.36413411
  H      6.51068124      1.58583076     -6.62430334
  H      5.31541936      1.10205524     -2.54437008
  H      2.93369621     -0.56933782     -5.69933712
  H      4.51297538      0.32091969     -7.35570360
  C      2.10939055     -1.89496462     -3.50597913
  C      0.73412852     -2.06199041     -3.34431496
  C      0.07251013     -3.12540169     -3.93760636
  C      0.77624255     -4.05056460     -4.69401835
  C      2.14879747     -3.90580111     -4.85140313
  C      2.81091783     -2.83848277     -4.26378374
  H      3.88151964     -2.73717655     -4.39874155
  H      0.25649962     -4.87966888     -5.16019187
  H      2.70716214     -4.62519803     -5.43898292
  H      0.17419018     -1.34360783     -2.75537802
  H      6.88769690      2.00028436     -4.20877257
  C      4.10371225     -1.27568492     -1.58134782
  C      3.81421610     -1.34484253     -0.21854783
  C      4.69476352     -1.94430032      0.66938236
  C      5.87822239     -2.50024087      0.20553672
  C      6.17578871     -2.44820932     -1.14985441
  C      5.30061240     -1.83828659     -2.03492088
  H      6.56531109     -2.97198097      0.89792882
  H      7.09742427     -2.88120667     -1.52083508
  H      5.55823989     -1.79256727     -3.08643193
  H     -0.99907416     -3.22254220     -3.81585694
  H      4.45358898     -1.97982131      1.72499703
  H      2.88704608     -0.92245780      0.15289608
  P      0.47131160      2.50896582     -3.97679278
  C      1.75195187      2.81653655     -5.23736713
  C      1.55173252      2.61517279     -6.60388267
  C      2.52849642      2.98931224     -7.51508203
  C      3.70629378      3.57782597     -7.07676628
  C      3.91878657      3.77237279     -5.71778478
  C      2.95240011      3.38636255     -4.80418274
  H      4.46140163      3.88069712     -7.79239739
  H      0.62942097      2.16982463     -6.95831903
  H      3.12386072      3.53045231     -3.74223931
  H      4.84102493      4.22224442     -5.36875528
  C     -0.19679636      4.19665944     -3.81527756
  C     -0.13038125      4.84952031     -2.58452125
  C     -0.53908296      6.17011612     -2.46496775
  C     -1.03930442      6.84716997     -3.56754766
  C     -1.11824626      6.20404570     -4.79636041
  C     -0.68860242      4.89334733     -4.92467856
  H     -0.72670829      4.40632183     -5.89282082
  H     -1.36200250      7.87707911     -3.47135565
  H     -1.50433860      6.73009459     -5.66159253
  H      0.25383998      4.32208159     -1.71739942
  H      2.36180865      2.82918745     -8.57392643
  C     -0.81468452      1.55343804     -4.83075347
  C     -0.47708004      0.28400332     -5.31119964
  C     -1.44983079     -0.56447722     -5.81354989
  C     -2.78078730     -0.16230881     -5.83564310
  C     -3.12914456      1.09544487     -5.36224350
  C     -2.15397053      1.94528700     -4.85994883
  H     -3.54297655     -0.82280087     -6.23112970
  H     -4.16354190      1.41778410     -5.38169090
  H     -2.43809893      2.92358695     -4.49412961
  H     -0.46271421      6.67058982     -1.50694508
  H     -1.17066599     -1.54435786     -6.18349125
  H      0.55748948     -0.04067503     -5.28217597
  P      1.03554079     -3.32530498      2.50514859
  C      2.10039325     -4.09884141      1.24894130
  C      3.20924125     -4.87150828      1.60922428
  C      4.00544442     -5.45261787      0.63594304
  C      3.70391713     -5.27630166     -0.70836139
  C      2.60864013     -4.50869766     -1.07616066
  C      1.81657732     -3.91501046     -0.10517742
  H      4.32474783     -5.73473397     -1.46906297
  H      3.44928670     -5.01483994      2.65681325
  H      0.97285504     -3.29898255     -0.39839358
  H      2.37228221     -4.36902936     -2.12386040
  C      0.51431046     -4.69186943      3.58086592
  C      0.01767743     -4.38237173      4.85171487
  C     -0.44821588     -5.38251441      5.68877664
  C     -0.44902470     -6.70415152      5.26102378
  C      0.02001547     -7.01969067      3.99363499
  C      0.49900744     -6.02228349      3.15688889
  H      0.87370144     -6.28241152      2.17358267
  H     -0.81631344     -7.48597596      5.91514827
  H      0.01843382     -8.04864897      3.65340243
  H      0.00466803     -3.35023335      5.18593729
  H      4.86331509     -6.04697007      0.92783736
  C      2.22153333     -2.39601955      3.53079762
  C      2.47803160     -1.06212434      3.20730849
  C      3.43101725     -0.33420434      3.90166235
  C      4.12762980     -0.92175600      4.94896316
  C      3.86712434     -2.24092725      5.29406779
  C      2.92698993     -2.97622448      4.58840875
  H      4.86992077     -0.35126266      5.49467395
  H      4.40319999     -2.70432686      6.11404101
  H      2.73823177     -4.00678195      4.86532888
  H     -0.81731725     -5.12885968      6.67585996
  H      3.62723919      0.69540617      3.62659963
  H      1.92424348     -0.59041015      2.40291162
  P     -3.68430779     -3.21940103     -2.75652012
  C     -5.50115025     -3.17304748     -2.75198383
  C     -6.29171607     -4.21074038     -3.25212515
  C     -7.67420508     -4.11586243     -3.21632328
  C     -8.28509717     -2.98975842     -2.68146849
  C     -7.50926881     -1.95090981     -2.18431454
  C     -6.12751675     -2.03983697     -2.22449409
  H     -9.36609253     -2.91909585     -2.65597448
  H     -5.82219760     -5.09349271     -3.67104733
  H     -5.52083175     -1.22356155     -1.84497196
  H     -7.98071757     -1.06714519     -1.76985391
  C     -3.27817993     -4.02784732     -1.17009456
  C     -1.94759786     -4.37936916     -0.92047284
  C     -1.57774892     -4.92907537      0.29726561
  C     -2.52638283     -5.11705995      1.29641360
  C     -3.84520590     -4.75055278      1.06793783
  C     -4.21837018     -4.21150903     -0.15478794
  H     -5.25302393     -3.93588707     -0.32162203
  H     -2.23323485     -5.55765138      2.24207593
  H     -4.59126433     -4.89402887      1.84101363
  H     -1.19671757     -4.22992703     -1.68843657
  H     -8.27732269     -4.92639704     -3.60858583
  C     -3.26235953     -4.47003491     -4.01493167
  C     -3.24042994     -4.05465061     -5.35055192
  C     -2.90560159     -4.94061783     -6.36114974
  C     -2.58151683     -6.25526537     -6.05160073
  C     -2.60339052     -6.67964634     -4.73026534
  C     -2.94171750     -5.79620177     -3.71612101
  H     -2.31507373     -6.94869364     -6.84045904
  H     -2.35788598     -7.70651733     -4.48512312
  H     -2.95798179     -6.14105084     -2.68882315
  H     -0.55029135     -5.23176217      0.46067574
  H     -2.89509244     -4.60418512     -7.39136445
  H     -3.49328710     -3.02817247     -5.59363021
  P     -3.31494645     -1.28680556      5.07791625
  C     -4.42845673     -0.20722414      6.02593162
  C     -5.79955213     -0.48813236      6.00034896
  C     -6.69799472      0.34303509      6.64951970
  C     -6.24326490      1.47125044      7.32006749
  C     -4.88701368      1.76457451      7.34053795
  C     -3.98209905      0.93481071      6.69464147
  H     -6.94690957      2.12136318      7.82633065
  H     -6.15732482     -1.36952732      5.47849199
  H     -2.92390115      1.16878599      6.72043742
  H     -4.52814307      2.64377194      7.86299428
  C     -1.64487043     -0.86116224      5.66848346
  C     -0.94592983      0.13020842      4.97300845
  C      0.34415116      0.47743467      5.33840194
  C      0.96048567     -0.16733455      6.40254512
  C      0.27964542     -1.15640571      7.09856793
  C     -1.01485224     -1.50185690      6.73685109
  H     -1.53799473     -2.27431325      7.28903028
  H      1.97324979      0.09697437      6.68396366
  H      0.75793154     -1.66365640      7.92839729
  H     -1.42243504      0.63100549      4.13668415
  H     -7.75623034      0.11007007      6.63027602
  C     -3.63141661     -2.95014766      5.73189017
  C     -3.44529290     -4.03863621      4.87760794
  C     -3.66655574     -5.33268038      5.32059895
  C     -4.07815919     -5.55571433      6.62775844
  C     -4.26963598     -4.48118136      7.48633778
  C     -4.05123634     -3.18550082      7.04474256
  H     -4.25434408     -6.56668772      6.97565298
  H     -4.59433501     -4.65235428      8.50599904
  H     -4.21434479     -2.35127197      7.71743428
  H      0.87212963      1.24694291      4.78621157
  H     -3.51781385     -6.16691639      4.64453983
  H     -3.12304289     -3.86172465      3.85679721
  P     -2.74010872      3.34651965     -0.37778329
  C     -3.72938608      2.55592976      0.93693108
  C     -3.47400872      2.68441668      2.30151601
  C     -4.23516079      1.98732260      3.22862615
  C     -5.25505058      1.14234951      2.80764043
  C     -5.51754294      1.00232049      1.44855848
  C     -4.75945883      1.70253835      0.52395004
  H     -5.85897348      0.61450183      3.53596434
  H     -2.68252720      3.33821419      2.64860156
  H     -4.97563306      1.60205320     -0.53357546
  H     -6.31732900      0.35343198      1.11167548
  C     -3.97439524      4.41909215     -1.18157919
  C     -3.79757546      4.74059749     -2.52872831
  C     -4.70408709      5.55480784     -3.18860230
  C     -5.80766786      6.05366187     -2.51044999
  C     -5.99734564      5.73792957     -1.17154945
  C     -5.08846394      4.92887217     -0.50785148
  H     -5.24533043      4.68749324      0.53730912
  H     -6.52124515      6.68617432     -3.02515481
  H     -6.85866908      6.12458511     -0.63923707
  H     -2.93764266      4.34849982     -3.05918907
  H     -4.03609980      2.10997037      4.28714271
  C     -1.68390732      4.51937691      0.54775182
  C     -0.60163585      4.01310915      1.27266971
  C      0.25536152      4.86067560      1.95466458
  C      0.04917964      6.23295871      1.92127971
  C     -1.02574915      6.74918118      1.21195781
  C     -1.88636566      5.90092558      0.52950294
  H      0.72544039      6.89642017      2.44730118
  H     -1.19849997      7.81885565      1.18865667
  H     -2.72425322      6.31729718     -0.01720188
  H     -4.54881691      5.79622791     -4.23390195
  H      1.08811885      4.44886736      2.51266951
  H     -0.43537440      2.94182073      1.30550743
  P      3.85408592      3.22348637      0.98810585
  C      3.49275486      4.88968086      0.36177870
  C      3.54766039      6.04109889      1.14805891
  C      3.19690975      7.27199781      0.61200643
  C      2.79316417      7.37021584     -0.71205378
  C      2.73559906      6.23031927     -1.50405989
  C      3.07061564      4.99860942     -0.96727178
  H      2.52252877      8.33343028     -1.12818081
  H      3.86689862      5.97592597      2.18178183
  H      3.00955668      4.10513881     -1.58112009
  H      2.42262465      6.29987118     -2.53946458
  C      5.40313054      2.74303378      0.16564120
  C      5.86331339      1.44060170      0.38537505
  C      7.01888635      0.98805346     -0.22914408
  C      7.72683722      1.82680746     -1.08130161
  C      7.27449843      3.11862175     -1.31193387
  C      6.11987016      3.57675320     -0.69400559
  H      5.77682668      4.58770726     -0.88048445
  H      8.62955786      1.47235267     -1.56460906
  H      7.82445623      3.77712585     -1.97423835
  H      5.30654568      0.78080417      1.04325757
  H      3.24362701      8.15918531      1.23278307
  C      4.32267392      3.45236764      2.72882266
  C      3.37243299      3.18486813      3.71806179
  C      3.68505628      3.34486319      5.05930891
  C      4.95525401      3.76584821      5.42908010
  C      5.90917646      4.02867494      4.45478761
  C      5.59851007      3.87375864      3.11278715
  H      5.20236922      3.88722267      6.47714182
  H      6.90174103      4.35616590      4.74132003
  H      6.34876243      4.07755498      2.35715249
  H      7.36493763     -0.02306134     -0.04747546
  H      2.93672379      3.13616761      5.81541278
  H      2.38091931      2.85087179      3.42966852
