#B3LYP/6-31+G(d) OPT FREQ

246, Energy =   -372.43969585 au

0 1
 Au     -2.45038600      0.49142764      0.16150635
 Au      0.09364944      0.51918759     -0.88613722
 Au      2.73256001     -0.12988059     -0.70204503
 Au     -0.98858959     -1.90350013      0.11886608
 Au      1.59895872     -1.56552583      1.60890643
 Au      1.51707216      1.01124320      1.77786817
 Au      1.63370297      0.83965483     -2.99656679
 Au     -1.11057824     -0.33033905      2.33292484
  P     -1.01509710     -3.94517846     -1.06885612
  C     -1.86072690     -5.25598479     -0.14938447
  C     -3.25563433     -5.22668978     -0.04398831
  C     -3.92346308     -6.15153713      0.74332067
  C     -3.20828765     -7.10887407      1.45170555
  C     -1.82127745     -7.12362747      1.38484101
  C     -1.14972936     -6.19762570      0.59970534
  H     -3.73073342     -7.83604559      2.06170659
  H     -3.82047536     -4.47319545     -0.58246259
  H     -0.06582719     -6.20614945      0.57079206
  H     -1.25758354     -7.86217262      1.94294070
  C      0.54651069     -4.63697007     -1.70252836
  C      1.58459568     -3.75108052     -1.99739581
  C      2.75868613     -4.20821801     -2.57744207
  C      2.91286296     -5.55700723     -2.86622306
  C      1.88102942     -6.44362410     -2.59021166
  C      0.70103575     -5.98821391     -2.02270023
  H     -0.10710106     -6.68604884     -1.83659143
  H      3.83343356     -5.91362133     -3.31298697
  H      1.99036340     -7.49570278     -2.82601325
  H      1.46544020     -2.69415106     -1.78031916
  H     -5.00555689     -6.12776803      0.79957196
  C     -1.89214622     -3.75112572     -2.65385594
  C     -1.60324404     -2.60107305     -3.39460771
  C     -2.15272364     -2.41440232     -4.65181056
  C     -3.01814872     -3.36374387     -5.17898008
  C     -3.31419921     -4.50754195     -4.45081475
  C     -2.74607418     -4.70971020     -3.20116364
  H     -3.45670250     -3.21403052     -6.15847032
  H     -3.98323178     -5.25492456     -4.86110113
  H     -2.96498548     -5.61936875     -2.65429062
  H      3.55557321     -3.50918763     -2.80204642
  H     -1.90491300     -1.52477181     -5.21894883
  H     -0.93517879     -1.85178496     -2.98139109
  P      2.92727437      0.94727060     -5.00400654
  C      2.68202200      2.17386069     -6.32598710
  C      3.18291718      3.46953704     -6.16852088
  C      2.93169170      4.44125809     -7.12401890
  C      2.17047325      4.13771338     -8.24481667
  C      1.65809108      2.85762256     -8.40559865
  C      1.90400144      1.88235816     -7.45061705
  H      1.97684764      4.89785842     -8.99232700
  H      3.78068609      3.71332119     -5.29677808
  H      1.50104472      0.88487105     -7.58622186
  H      1.06435234      2.61413057     -9.27906975
  C      2.94942094     -0.66189206     -5.84849608
  C      2.36154188     -1.74657445     -5.19308336
  C      2.35971404     -3.00880464     -5.76464545
  C      2.94931608     -3.20741937     -7.00549800
  C      3.52733412     -2.13679570     -7.67453964
  C      3.52513302     -0.87234016     -7.10589175
  H      3.96306009     -0.04220124     -7.64801255
  H      2.95098807     -4.19364099     -7.45452315
  H      3.97977224     -2.28540750     -8.64807993
  H      1.89426246     -1.59263973     -4.22554767
  H      3.33367887      5.43929862     -6.99321507
  C      4.65500257      1.22810896     -4.48304543
  C      4.86846640      1.93299456     -3.29545930
  C      6.15165098      2.15930803     -2.82404818
  C      7.24612333      1.68055242     -3.53061035
  C      7.04859345      0.98317274     -4.71460040
  C      5.76525883      0.76107530     -5.18972956
  H      8.25011056      1.85258492     -3.16079941
  H      7.89868585      0.60782348     -5.27233836
  H      5.63002956      0.21299900     -6.11439646
  H      1.89559533     -3.83681675     -5.24083938
  H      6.29574446      2.70699859     -1.90003997
  H      4.01748803      2.30446386     -2.73471385
  P     -0.59448974     -0.91095053      4.62291672
  C     -0.63498762     -2.69947401      4.94075626
  C     -0.10188250     -3.26321463      6.10581660
  C     -0.13393873     -4.63493850      6.29961094
  C     -0.68626318     -5.46510437      5.33296225
  C     -1.19847403     -4.91877902      4.16493246
  C     -1.17013051     -3.54697289      3.97026412
  H     -0.70902716     -6.53761747      5.48645648
  H      0.35472585     -2.62585465      6.85448215
  H     -1.56597027     -3.12378130      3.05341457
  H     -1.61829420     -5.56198411      3.40009168
  C     -1.64155995     -0.11892590      5.88174258
  C     -2.05672153      1.19028517      5.61969598
  C     -2.87265731      1.86690204      6.51151128
  C     -3.30316539      1.23694116      7.67154824
  C     -2.91564686     -0.07045482      7.93124954
  C     -2.09073103     -0.74665642      7.04462259
  H     -1.80415263     -1.76953796      7.25768463
  H     -3.94717316      1.76145703      8.36735645
  H     -3.25765583     -0.57003934      8.83016971
  H     -1.74610015      1.67267577      4.69829519
  H      0.27931854     -5.05808207      7.20771757
  C      1.11739768     -0.49270619      5.08852883
  C      2.15434487     -1.36984883      4.74905945
  C      3.47897386     -1.01125052      4.94389689
  C      3.79191828      0.22927742      5.48252235
  C      2.77205347      1.10178687      5.83634616
  C      1.44606883      0.74812870      5.63547616
  H      4.82711778      0.51202634      5.63376222
  H      3.00933523      2.06663155      6.26957199
  H      0.65908829      1.44005889      5.91259284
  H     -3.18148732      2.88310275      6.29396561
  H      4.26604134     -1.70600890      4.67335507
  H      1.92218934     -2.35099047      4.35116020
  P     -4.54294082      0.48425059      1.64613889
  C     -4.56501398      1.95261532      2.72572656
  C     -5.67494725      2.31744218      3.49479274
  C     -5.64113678      3.45817314      4.28181865
  C     -4.50489667      4.25632184      4.31041640
  C     -3.39666010      3.90628698      3.55056431
  C     -3.42737651      2.76301813      2.76726351
  H     -4.48556104      5.15375891      4.91735470
  H     -6.57224612      1.70984339      3.46842702
  H     -2.55983913      2.49653767      2.17187736
  H     -2.50938595      4.52902105      3.56013266
  C     -4.51282473     -0.92473878      2.81052917
  C     -4.28108034     -2.19731135      2.27643524
  C     -4.25838246     -3.31557064      3.09452885
  C     -4.43506366     -3.17773725      4.46533191
  C     -4.63226317     -1.91713770      5.00969774
  C     -4.67666967     -0.79864270      4.19015166
  H     -4.83329437      0.17851739      4.63200298
  H     -4.40724159     -4.05069653      5.10660737
  H     -4.75461669     -1.79984867      6.08032696
  H     -4.10640707     -2.30907905      1.21082257
  H     -6.50878364      3.72814675      4.87235656
  C     -6.24773874      0.40783984      0.98299140
  C     -6.91521894      1.58287647      0.62219612
  C     -8.17035569      1.53339423      0.03703238
  C     -8.78009942      0.31032593     -0.20573490
  C     -8.12419984     -0.86325269      0.13904243
  C     -6.86736470     -0.81730415      0.72114201
  H     -9.76258316      0.27232971     -0.66071853
  H     -8.59194699     -1.82235379     -0.04739021
  H     -6.37174578     -1.74516024      0.98277097
  H     -4.09491890     -4.29568821      2.66071087
  H     -8.67366119      2.45574498     -0.22959043
  H     -6.45462989      2.54591325      0.80774039
  P      4.87087330     -1.11152939     -0.17679556
  C      6.06448983     -0.01955167      0.64885274
  C      5.76114468      0.44764907      1.93373267
  C      6.61449993      1.32424461      2.58452456
  C      7.77228920      1.76457298      1.95468372
  C      8.07033093      1.32548726      0.67168871
  C      7.22231088      0.44134630      0.02037229
  H      8.43996724      2.44953846      2.46355553
  H      4.85517902      0.11111176      2.42827990
  H      7.46526118      0.10127655     -0.97994298
  H      8.97018676      1.66923397      0.17498182
  C      5.77869435     -1.87614744     -1.55554334
  C      5.28507590     -1.73686764     -2.85327770
  C      5.93005960     -2.33905395     -3.92348918
  C      7.07878584     -3.08671212     -3.70808764
  C      7.57957054     -3.23177549     -2.42031243
  C      6.93439486     -2.63585455     -1.34881104
  H      7.32482416     -2.76114880     -0.34491626
  H      7.58375361     -3.55809339     -4.54296313
  H      8.47613878     -3.81615150     -2.24946885
  H      4.39326597     -1.14324463     -3.02367605
  H      6.37347867      1.66618114      3.58470077
  C      4.68409866     -2.49777763      0.99889465
  C      3.61348942     -3.37811413      0.79261208
  C      3.35983567     -4.41765365      1.67694938
  C      4.17294785     -4.59376610      2.78830141
  C      5.24965787     -3.74232356      2.99274175
  C      5.50549122     -2.70342259      2.10720638
  H      3.97361397     -5.39752655      3.48710056
  H      5.90076476     -3.88653769      3.84709735
  H      6.35199921     -2.05135392      2.28664825
  H      5.53258343     -2.22300493     -4.92527055
  H      2.52830138     -5.08777684      1.49086240
  H      3.00596270     -3.27642016     -0.09717717
  P      1.51623036      3.36903593      2.00565890
  C      0.08911596      4.32669044      1.39930740
  C     -0.38456477      5.47523124      2.04013653
  C     -1.43189249      6.20437961      1.49626310
  C     -2.01016519      5.80983927      0.29846963
  C     -1.54220624      4.67561727     -0.35053391
  C     -0.50866761      3.93683526      0.19997703
  H     -2.82208300      6.38413088     -0.13193089
  H      0.07179963      5.80854632      2.96444390
  H     -0.14782780      3.05084728     -0.31241366
  H     -1.98398628      4.36841878     -1.29076417
  C      2.91103847      4.09804163      1.09603548
  C      4.11547972      3.39098820      1.06367644
  C      5.21526166      3.89843785      0.39125361
  C      5.12064125      5.10945894     -0.28109227
  C      3.92421719      5.81305719     -0.26926506
  C      2.82751269      5.31661940      0.41829450
  H      1.90192361      5.88022293      0.42761552
  H      5.97846243      5.50314278     -0.81341669
  H      3.84434850      6.75801099     -0.79404122
  H      4.18728479      2.43639907      1.57318909
  H     -1.78754953      7.09181689      2.00660086
  C      1.71837223      3.93588157      3.72007541
  C      0.62401392      3.82561695      4.58541811
  C      0.73278274      4.20608206      5.91313330
  C      1.94327461      4.68321349      6.40124084
  C      3.04055879      4.77702492      5.55584821
  C      2.93201847      4.40544620      4.22336181
  H      2.03002759      4.98049413      7.43951378
  H      3.98682481      5.14649201      5.93352969
  H      3.79342034      4.48735012      3.57039226
  H      6.14912212      3.34843970      0.39550644
  H     -0.12786677      4.12811127      6.56763156
  H     -0.31946515      3.44453725      4.20838163
  P     -3.51309382      1.34430082     -1.88780133
  C     -4.39038948      2.94137564     -1.81552020
  C     -4.91944316      3.55924838     -2.95338960
  C     -5.60151031      4.76108206     -2.84450073
  C     -5.76042211      5.36780663     -1.60546694
  C     -5.22104650      4.77527347     -0.47213664
  C     -4.53717993      3.57336571     -0.57985995
  H     -6.29663120      6.30594163     -1.52502005
  H     -4.78784279      3.10221368     -3.92770930
  H     -4.09866646      3.12180818      0.30249390
  H     -5.32950509      5.24718014      0.49767479
  C     -4.81078692      0.12402121     -2.27186158
  C     -4.48973122     -1.22255822     -2.07502146
  C     -5.41116943     -2.22085651     -2.34259117
  C     -6.67750117     -1.88886247     -2.80523604
  C     -7.01549832     -0.55525746     -2.98790213
  C     -6.09278706      0.44538662     -2.72127558
  H     -6.37685621      1.48212180     -2.85847537
  H     -7.40109789     -2.66755212     -3.01539610
  H     -8.00633622     -0.28936656     -3.33729031
  H     -3.50175152     -1.48561931     -1.71207328
  H     -6.01037339      5.22709980     -3.73336002
  C     -2.60665302      1.49868750     -3.46914918
  C     -1.44728273      2.27932254     -3.48684768
  C     -0.73209369      2.46281826     -4.66009846
  C     -1.16450027      1.86127207     -5.83542194
  C     -2.30922929      1.07852497     -5.82976510
  C     -3.02796896      0.89703192     -4.65543586
  H     -0.61116554      2.01091882     -6.75477320
  H     -2.65491951      0.61442485     -6.74621719
  H     -3.92530486      0.28943081     -4.66559867
  H     -5.13979477     -3.25954767     -2.19004174
  H      0.14947644      3.09292753     -4.66137195
  H     -1.11222448      2.76245368     -2.57687348

