#B3LYP/6-31+G(d) OPT FREQ

246, Energy =   -372.45219510 au

0 1
 Au      2.79613069     -0.70828957      1.32128239
 Au     -0.24196864      1.51049271     -0.39547803
 Au      1.64924039     -1.88981860      3.26838480
 Au      2.26843396      0.40556782     -1.24345331
 Au      0.15111678      0.16983462     -2.88723815
 Au      0.07987891     -1.13112360     -0.33523632
 Au      0.11479746      0.33634932      2.23626581
 Au     -2.21082597     -0.11889225      1.06976631
  P      0.07264788      0.61565846     -5.24575782
  C     -1.47564293      0.57467143     -6.20424397
  C     -2.27555638      1.71008012     -6.35395179
  C     -3.49765798      1.62850188     -7.00339020
  C     -3.94305046      0.41484118     -7.50881341
  C     -3.16072036     -0.72288224     -7.35821762
  C     -1.94134191     -0.64650774     -6.70338273
  H     -4.89634526      0.35532129     -8.02031635
  H     -1.93961135      2.66642409     -5.96952676
  H     -1.33789718     -1.53920637     -6.58608269
  H     -3.49839250     -1.67389742     -7.75376129
  C      1.24148522     -0.43308821     -6.15739931
  C      2.26404290     -1.05745269     -5.43777640
  C      3.19745249     -1.85536662     -6.07932183
  C      3.12157435     -2.04351549     -7.45288754
  C      2.11356811     -1.42567663     -8.18050562
  C      1.18031111     -0.62396146     -7.54136329
  H      0.39746735     -0.14549529     -8.11850015
  H      3.84751835     -2.67207658     -7.95509589
  H      2.05263009     -1.56762378     -9.25316675
  H      2.32386033     -0.91665695     -4.36287175
  H     -4.10287291      2.52047349     -7.11817619
  C      0.70465602      2.30369632     -5.50161195
  C      0.18168341      3.31957609     -4.69661375
  C      0.59806020      4.63186557     -4.85274497
  C      1.56914087      4.94387333     -5.79438395
  C      2.11529241      3.93858962     -6.58112027
  C      1.68327973      2.62758720     -6.44262214
  H      1.90231863      5.96826659     -5.91185345
  H      2.87456649      4.17695734     -7.31698103
  H      2.10955123      1.85438125     -7.07124829
  H      3.98183121     -2.33506261     -5.50491064
  H      0.16727381      5.40955167     -4.23232915
  H     -0.55392489      3.07256363     -3.93887777
  P      4.62803273      0.34294266     -1.39771668
  C      5.30707922      1.73011628     -2.35096778
  C      6.40607221      2.48831417     -1.94638366
  C      6.84621006      3.54814545     -2.72605666
  C      6.19701259      3.86293689     -3.91156091
  C      5.09717555      3.11680089     -4.31973815
  C      4.65206942      2.06040556     -3.54231483
  H      6.54440904      4.69112141     -4.51780935
  H      6.91801590      2.24784477     -1.02177104
  H      3.78840777      1.48248232     -3.85708618
  H      4.58301907      3.35968942     -5.24294030
  C      5.14020425     -1.13139123     -2.32464162
  C      4.31345609     -2.25729650     -2.30536141
  C      4.65611069     -3.39605139     -3.01673017
  C      5.83034905     -3.42389704     -3.75837429
  C      6.65909871     -2.30975706     -3.78537133
  C      6.31799072     -1.16875273     -3.07629810
  H      6.96563143     -0.29990715     -3.10660714
  H      6.09863330     -4.31390274     -4.31523284
  H      7.57557423     -2.32843066     -4.36343348
  H      3.39567184     -2.23754590     -1.72679135
  H      7.70265079      4.12952847     -2.40518494
  C      5.54037370      0.28278812      0.17024299
  C      5.25306253      1.27018670      1.12080430
  C      5.84778426      1.23977681      2.37157021
  C      6.72272887      0.21109169      2.69742531
  C      7.00556013     -0.77794260      1.76581425
  C      6.42047441     -0.74608742      0.50830043
  H      7.18186076      0.18045949      3.67852349
  H      7.68652981     -1.58241400      2.01830033
  H      6.64678886     -1.52368449     -0.21189773
  H      4.00536630     -4.26267668     -2.99377348
  H      5.62597225      2.01939541      3.09153790
  H      4.56500685      2.06856044      0.86669190
  P     -4.46658739     -0.19967270      0.27016568
  C     -5.19701024      1.45722223      0.43081499
  C     -5.83185368      2.14062071     -0.60649396
  C     -6.32893577      3.41957661     -0.40390867
  C     -6.20892706      4.02880645      0.83736581
  C     -5.56503648      3.36388294      1.87362573
  C     -5.04865578      2.09553581      1.66712602
  H     -6.61185089      5.02209326      0.99656912
  H     -5.93862173      1.67497345     -1.57942056
  H     -4.51936638      1.59074739      2.46901656
  H     -5.45821080      3.83778912      2.84273985
  C     -5.64887063     -1.32103328      1.08205297
  C     -5.58844656     -2.68073598      0.75755639
  C     -6.39421786     -3.59771339      1.41308928
  C     -7.26192509     -3.17377977      2.41147783
  C     -7.32537047     -1.82796322      2.74452509
  C     -6.52375035     -0.90599126      2.08743565
  H     -6.58927857      0.14323498      2.35161993
  H     -7.88967190     -3.89150480      2.92605351
  H     -8.00490780     -1.49069164      3.51855921
  H     -4.90888472     -3.01811171     -0.01839083
  H     -6.81775717      3.93946472     -1.21973655
  C     -4.63687176     -0.62509537     -1.49029739
  C     -3.48818288     -0.72101209     -2.27539201
  C     -3.57398311     -1.01048841     -3.62741305
  C     -4.81414830     -1.21524874     -4.21505995
  C     -5.96546980     -1.14120080     -3.44214631
  C     -5.88044187     -0.85115008     -2.08939968
  H     -4.88090245     -1.43763444     -5.27381673
  H     -6.93524608     -1.31042382     -3.89532727
  H     -6.78250732     -0.80529203     -1.48985596
  H     -6.34351134     -4.64645737      1.14352619
  H     -2.66953820     -1.08279081     -4.22012952
  H     -2.51535439     -0.57511458     -1.81919238
  P     -0.11366680     -3.47920855     -0.84847449
  C     -1.30792357     -4.48860953      0.09360669
  C     -1.42161254     -5.86889857     -0.10370354
  C     -2.34887258     -6.60873642      0.61220627
  C     -3.18134220     -5.98394114      1.53153992
  C     -3.07912293     -4.61534420      1.73260934
  C     -2.14505889     -3.87551521      1.02463236
  H     -3.90815117     -6.56224936      2.08960152
  H     -0.78056846     -6.36702189     -0.82184117
  H     -2.06675000     -2.80646294      1.19500107
  H     -3.73141487     -4.11733703      2.43925202
  C      1.39995360     -4.49921450     -0.83711680
  C      2.38679866     -4.20926398      0.10645402
  C      3.54105599     -4.97086512      0.19145771
  C      3.72925365     -6.03917853     -0.67462576
  C      2.76151302     -6.33335015     -1.62639098
  C      1.60539122     -5.57180280     -1.71004131
  H      0.86483593     -5.80906705     -2.46479624
  H      4.62985021     -6.63833356     -0.61227199
  H      2.90496005     -7.16330842     -2.30843913
  H      2.24867302     -3.37076310      0.77966002
  H     -2.42279354     -7.67765346      0.44971516
  C     -0.70232174     -3.65928316     -2.56234368
  C     -2.03054242     -3.96484636     -2.86277551
  C     -2.44736169     -4.06988320     -4.18175569
  C     -1.54531530     -3.87110574     -5.21756524
  C     -0.22811296     -3.53398833     -4.93068516
  C      0.18715477     -3.41555126     -3.61435661
  H     -1.86629391     -3.98213171     -6.24652054
  H      0.48087822     -3.37180834     -5.73424143
  H      1.21755705     -3.15388943     -3.39659887
  H      4.29335596     -4.72693687      0.93256210
  H     -3.47991088     -4.31723634     -4.39945614
  H     -2.74156217     -4.13138149     -2.06146593
  P      1.06412286      1.85215594      3.90593833
  C      2.33040693      3.00685530      3.27338655
  C      3.28053860      3.62009266      4.09406147
  C      4.20817096      4.50152800      3.55942223
  C      4.20279075      4.78561175      2.20018517
  C      3.27077931      4.17482363      1.37193995
  C      2.34468728      3.29111961      1.90660893
  H      4.92755747      5.47601491      1.78514000
  H      3.30078786      3.40104810      5.15534264
  H      1.62972788      2.80237154      1.25265212
  H      3.26403978      4.38446804      0.30845969
  C      1.90024728      1.04834159      5.30639077
  C      1.27527485      0.85459259      6.54015446
  C      1.91002289      0.13850924      7.54400020
  C      3.16392309     -0.41407936      7.32529181
  C      3.78657282     -0.24831577      6.09504681
  C      3.16021228      0.47582932      5.09339442
  H      3.65930851      0.61813167      4.14096603
  H      3.65423129     -0.97654474      8.11094189
  H      4.76462670     -0.67962485      5.91525425
  H      0.29303917      1.27559269      6.72193154
  H      4.93828847      4.97005464      4.20898626
  C     -0.17104690      2.94698896      4.68161552
  C     -1.48829937      2.89177461      4.22292912
  C     -2.47444503      3.67731728      4.79903976
  C     -2.15390167      4.54060997      5.83727174
  C     -0.84275319      4.62064677      6.28910920
  C      0.14272133      3.83035294      5.71880335
  H     -2.92317642      5.15415727      6.29109061
  H     -0.58679604      5.29995759      7.09383086
  H      1.16142966      3.89775378      6.08313347
  H      1.41834815      0.00723654      8.50096552
  H     -3.49295444      3.61845887      4.43224397
  H     -1.73812866      2.22899592      3.40174716
  P      0.26487374     -3.01950079      4.81094279
  C      0.71699615     -3.06157322      6.57126925
  C     -0.10948956     -2.58554702      7.59015526
  C      0.30884637     -2.64003545      8.91202133
  C      1.55269093     -3.16670916      9.23108035
  C      2.38623997     -3.63439276      8.22246651
  C      1.97503360     -3.57668428      6.90099099
  H      1.87439015     -3.21164110     10.26479030
  H     -1.08367351     -2.17492755      7.35124334
  H      2.62910053     -3.93750641      6.11390080
  H      3.35903090     -4.04509199      8.46653697
  C      0.10396802     -4.77551849      4.37487684
  C      0.43272766     -5.17016482      3.07696566
  C      0.34524473     -6.49933040      2.69670429
  C     -0.08061322     -7.45436208      3.60964863
  C     -0.41184748     -7.07505853      4.90378665
  C     -0.31699532     -5.74676196      5.28856246
  H     -0.56120995     -5.46085120      6.30542612
  H     -0.14813698     -8.49491358      3.31461316
  H     -0.73981569     -7.81906356      5.62036663
  H      0.76407930     -4.42359816      2.36294375
  H     -0.34398777     -2.27326765      9.69556463
  C     -1.44417952     -2.38174331      4.79369808
  C     -1.63258659     -0.99724682      4.80918112
  C     -2.90418099     -0.45118029      4.73410712
  C     -4.01269945     -1.28326569      4.64876339
  C     -3.84141355     -2.66012540      4.65719822
  C     -2.56743451     -3.20712096      4.72719569
  H     -5.00780019     -0.85936673      4.58044213
  H     -4.70509279     -3.31382257      4.61015924
  H     -2.44765599     -4.28437666      4.72838868
  H      0.61248183     -6.78931795      1.68681923
  H     -3.02984704      0.62527426      4.74905611
  H     -0.77148543     -0.34271856      4.88729253
  P     -0.81113331      3.82934148     -0.63773700
  C      0.56994392      4.87025501     -1.21769271
  C      0.58137778      6.26054141     -1.06703794
  C      1.65248496      7.01100994     -1.52641842
  C      2.73101067      6.38931613     -2.14055906
  C      2.73498105      5.00950359     -2.29186392
  C      1.66390910      4.25849991     -1.83295369
  H      3.56875043      6.97695258     -2.49695027
  H     -0.24731429      6.75889755     -0.57775715
  H      1.67596846      3.18047827     -1.95568488
  H      3.57142840      4.51493588     -2.77151954
  C     -1.48513125      4.81827611      0.73491822
  C     -2.83518617      5.16199075      0.81858438
  C     -3.29967813      5.92235542      1.88180068
  C     -2.42961281      6.33801812      2.87939143
  C     -1.08837015      5.98218551      2.81760743
  C     -0.62059536      5.22376855      1.75803644
  H      0.42900833      4.95432133      1.71318291
  H     -2.79512740      6.93692522      3.70509327
  H     -0.40441438      6.29620199      3.59780645
  H     -3.52415458      4.84640990      0.04323250
  H      1.64458798      8.08744809     -1.40108614
  C     -2.06402222      3.97681481     -1.95389744
  C     -2.75023243      2.82613895     -2.34799627
  C     -3.68157845      2.86616571     -3.37343714
  C     -3.94629628      4.06601349     -4.01913046
  C     -3.27785943      5.22057811     -3.63272723
  C     -2.34296466      5.17928761     -2.61012974
  H     -4.67150460      4.10128174     -4.82360281
  H     -3.48220526      6.15918770     -4.13462917
  H     -1.82287196      6.08590132     -2.32256040
  H     -4.34665724      6.19905705      1.92494091
  H     -4.19217662      1.95789303     -3.67319176
  H     -2.54679068      1.88762539     -1.84422736

