#B3LYP/6-31+G(d) OPT FREQ

246, Energy =   -372.43384147 au

0 1
 Au      4.11164505     -0.11564672      0.99701457
 Au      0.81705463      2.60077013     -2.20944395
 Au     -0.10504367      0.35288533     -0.77595928
 Au      0.42641112      2.93070485      0.46019343
 Au      0.02336841     -1.93690313      0.66594578
 Au     -2.10306235     -1.27309935     -0.96138387
 Au      2.73725738     -1.35430181     -0.82191903
 Au      2.43726707      1.41119209     -0.45169588
  P      1.24606557     -3.94710934      1.27916058
  C      0.16922687     -5.40933747      1.20826904
  C      0.62609263     -6.71851779      1.39470222
  C     -0.25502132     -7.78642260      1.31978437
  C     -1.59919063     -7.56997771      1.04728930
  C     -2.06165937     -6.27775110      0.84024152
  C     -1.18232565     -5.20949124      0.91952966
  H     -2.28352520     -8.40797006      0.98710278
  H      1.67713214     -6.90507178      1.58243787
  H     -1.54208448     -4.20074159      0.74659295
  H     -3.10657078     -6.09994864      0.61270388
  C      1.89100950     -3.84315934      2.98306464
  C      2.43935031     -2.62053860      3.38300605
  C      3.03961322     -2.48357746      4.62432809
  C      3.09100903     -3.56471789      5.49343483
  C      2.52272522     -4.77473535      5.12001453
  C      1.92627019     -4.91481826      3.87584404
  H      1.48160610     -5.86477239      3.60526607
  H      3.56450797     -3.46093642      6.46249871
  H      2.54535526     -5.61859371      5.79966316
  H      2.39085477     -1.76689684      2.71416006
  H      0.11247347     -8.79487393      1.46987985
  C      2.74832476     -4.47739243      0.38323251
  C      2.68495982     -5.41267963     -0.65286242
  C      3.83063603     -5.78187670     -1.34034578
  C      5.05338195     -5.20343830     -1.02819049
  C      5.12590766     -4.25196539     -0.02129215
  C      3.98511864     -3.89523091      0.68205316
  H      5.94582805     -5.49210355     -1.57056852
  H      6.07492935     -3.79176269      0.22879443
  H      4.06522413     -3.18296386      1.49499112
  H      3.47045454     -1.53201191      4.91264314
  H      3.76614214     -6.52770041     -2.12412312
  H      1.73685323     -5.86677580     -0.91653388
  P      2.33685730     -2.35238520     -3.00965976
  C      3.95945867     -2.98035673     -3.57088793
  C      4.18093645     -4.25457244     -4.09498677
  C      5.46095460     -4.66567549     -4.43984502
  C      6.54373420     -3.81870399     -4.25543583
  C      6.34145908     -2.55691543     -3.71186813
  C      5.06458608     -2.14632418     -3.36890982
  H      7.54197409     -4.14274424     -4.52440388
  H      3.35701967     -4.94493701     -4.22615880
  H      4.92410538     -1.16518756     -2.92957788
  H      7.18149990     -1.89166830     -3.54805447
  C      2.01370497     -1.02214738     -4.22736422
  C      1.12871803     -1.13784422     -5.29998862
  C      0.98923987     -0.10742365     -6.21935592
  C      1.71804775      1.06317166     -6.07585757
  C      2.56265640      1.21520061     -4.98373962
  C      2.70369341      0.18410442     -4.06820916
  H      3.36790482      0.31544128     -3.22198132
  H      1.62033929      1.85790219     -6.80543983
  H      3.12287080      2.13371051     -4.85094702
  H      0.53783893     -2.03637081     -5.42828330
  H      5.60895293     -5.65753865     -4.85105332
  C      1.14098029     -3.66657046     -3.43495504
  C      0.25644578     -4.09472996     -2.44339620
  C     -0.65478925     -5.11152846     -2.68114697
  C     -0.69460720     -5.72468065     -3.92514641
  C      0.16636454     -5.30234387     -4.92873961
  C      1.07587117     -4.28255934     -4.69085194
  H     -1.39555378     -6.52955128     -4.11189824
  H      0.13495807     -5.77333670     -5.90438189
  H      1.74157438     -3.97120080     -5.48711827
  H      0.30644309     -0.22474950     -7.05289271
  H     -1.32748623     -5.42708310     -1.89129694
  H      0.28814059     -3.62613714     -1.46675733
  P      5.54118486      1.31053841      2.30965768
  C      4.80131430      2.96575846      2.08893374
  C      4.26820548      3.72643167      3.12989979
  C      3.55123159      4.88602669      2.86286196
  C      3.35520422      5.30316839      1.55434494
  C      3.91114530      4.57370424      0.50969419
  C      4.62682304      3.41677340      0.77512195
  H      2.78053023      6.19850720      1.34656060
  H      4.41082698      3.41240804      4.15756556
  H      5.06803785      2.85910109     -0.04351694
  H      3.78432498      4.90488843     -0.51465804
  C      7.19125216      1.50033273      1.57675171
  C      7.72860604      0.42668091      0.86279712
  C      8.98044876      0.52651891      0.27634789
  C      9.70860425      1.70269786      0.39239966
  C      9.18182404      2.77871195      1.09499917
  C      7.93138446      2.68211112      1.68451391
  H      7.52112301      3.52748953      2.22564932
  H     10.68618438      1.78276811     -0.06832685
  H      9.74745243      3.69899853      1.18361317
  H      7.15546756     -0.49011316      0.76712804
  H      3.13793865      5.46075108      3.68402550
  C      5.80709486      1.15706257      4.10385045
  C      4.69371166      0.87600773      4.90335011
  C      4.82736592      0.72701288      6.27432910
  C      6.07991806      0.83726077      6.86459058
  C      7.19361965      1.09760732      6.07854234
  C      7.06195928      1.25639848      4.70694676
  H      6.18727919      0.71598355      7.93603830
  H      8.17334554      1.17869503      6.53488754
  H      7.93902408      1.46030784      4.10364743
  H      9.38627681     -0.31382383     -0.27506321
  H      3.95282124      0.52117992      6.88127904
  H      3.71629676      0.77954062      4.44247528
  P     -4.24346568     -2.18376540     -1.38904545
  C     -4.35363009     -3.82726358     -2.16467352
  C     -4.79905283     -4.96908998     -1.49762279
  C     -4.81755182     -6.19594686     -2.14502274
  C     -4.39808881     -6.29771159     -3.46383826
  C     -3.94902740     -5.16729265     -4.13565599
  C     -3.91541810     -3.94349618     -3.48802509
  H     -4.42306998     -7.25546332     -3.96996262
  H     -5.14574156     -4.89864998     -0.47305029
  H     -3.55614179     -3.06391665     -4.01307166
  H     -3.62392557     -5.23913759     -5.16715272
  C     -5.23126789     -1.14133273     -2.50112867
  C     -4.75435952      0.12808089     -2.83016747
  C     -5.50140746      0.98068655     -3.62892988
  C     -6.72842366      0.56524545     -4.12684257
  C     -7.20053623     -0.70728085     -3.83137070
  C     -6.46099396     -1.55614812     -3.02312693
  H     -6.83305150     -2.54980402     -2.79996933
  H     -7.31292570      1.22942720     -4.75257850
  H     -8.15181294     -1.03927700     -4.23057640
  H     -3.77907723      0.43688779     -2.46869385
  H     -5.17042655     -7.07435620     -1.61712902
  C     -5.22932497     -2.31633135      0.13370718
  C     -4.63857983     -2.96524811      1.22306870
  C     -5.31712591     -3.09715821      2.42313654
  C     -6.59128081     -2.56260228      2.56129649
  C     -7.17754098     -1.89373582      1.49617905
  C     -6.50364367     -1.76958639      0.29011958
  H     -7.12176231     -2.66013234      3.50105433
  H     -8.16746546     -1.46539907      1.60225448
  H     -6.97474988     -1.24366067     -0.53198614
  H     -5.11967640      1.96663730     -3.86903796
  H     -4.84756198     -3.60926848      3.25519812
  H     -3.63384147     -3.36263921      1.12430373
  P     -1.16131610      4.27434132      1.59679601
  C     -2.84934408      4.02184370      0.95285012
  C     -3.89106621      4.89047470      1.29355924
  C     -5.17406453      4.67526112      0.81788471
  C     -5.44022694      3.58529468     -0.00135073
  C     -4.41398777      2.71634873     -0.34572354
  C     -3.12649244      2.93706748      0.12211522
  H     -6.44433381      3.41200207     -0.36987431
  H     -3.69589084      5.74112759      1.93627049
  H     -2.32841915      2.25759366     -0.15667245
  H     -4.61835388      1.86420552     -0.98193341
  C     -0.84019361      6.02758869      1.24199118
  C     -0.10560090      6.33197766      0.09286337
  C      0.14878138      7.64671813     -0.26129186
  C     -0.32951680      8.68211890      0.53034410
  C     -1.05904832      8.39438936      1.67572510
  C     -1.31385513      7.07904377      2.03224826
  H     -1.87727732      6.87049049      2.93437695
  H     -0.13034683      9.71146358      0.25688629
  H     -1.43202185      9.19894512      2.29870316
  H      0.26903224      5.52562159     -0.52955863
  H     -5.97005742      5.35829312      1.09015554
  C     -1.41786985      4.18380292      3.39427643
  C     -2.41301989      3.35933576      3.92698288
  C     -2.60399410      3.28451550      5.29747715
  C     -1.80253903      4.02695196      6.15496043
  C     -0.78915019      4.82373462      5.63740692
  C     -0.58742786      4.89270935      4.26760877
  H     -1.96419887      3.98156648      7.22540314
  H     -0.15277685      5.39500363      6.30316295
  H      0.21087525      5.51043539      3.87070541
  H      0.72305953      7.86176203     -1.15505411
  H     -3.38599452      2.64776431      5.69540616
  H     -3.04867837      2.78168076      3.26470880
  P     -1.07918089     -1.31417109      3.03415482
  C     -2.78886507     -0.68098555      3.27578437
  C     -3.51614087     -0.88368675      4.45124840
  C     -4.78279568     -0.33895657      4.59914612
  C     -5.34755142      0.40749726      3.57434908
  C     -4.64005006      0.60495258      2.39642197
  C     -3.37043737      0.06785709      2.25129493
  H     -6.33976527      0.82773612      3.68842168
  H     -3.09300919     -1.47525910      5.25469144
  H     -2.82305023      0.22803436      1.32752503
  H     -5.08068428      1.17361385      1.58581863
  C     -0.14715266      0.06676492      3.79119209
  C      0.85369652      0.66796053      3.03019697
  C      1.56343730      1.75550035      3.51298666
  C      1.30724311      2.23827924      4.78872491
  C      0.32615847      1.63772301      5.56563276
  C     -0.41362878      0.57793106      5.06420998
  H     -1.20825635      0.15072786      5.66528993
  H      1.86710326      3.08243807      5.17364649
  H      0.12186919      2.00941242      6.56284540
  H      1.07830491      0.27710005      2.04560713
  H     -5.33233702     -0.50299133      5.51879019
  C     -1.00977408     -2.64791443      4.28294870
  C     -1.73820280     -3.80902378      3.99947503
  C     -1.71709532     -4.89171424      4.86239155
  C     -0.96379206     -4.83437213      6.02786424
  C     -0.22581742     -3.69486391      6.31385713
  C     -0.23888519     -2.61277755      5.44561188
  H     -0.94716986     -5.67823850      6.70726534
  H      0.37209233     -3.64687134      7.21677285
  H      0.36334442     -1.74151776      5.67522133
  H      2.31880775      2.22026826      2.89179455
  H     -2.28901601     -5.78130441      4.62446193
  H     -2.32748143     -3.85972564      3.09003234
  P     -0.42720304      3.46866012     -4.02763321
  C      0.55754980      4.17095626     -5.38382993
  C      0.18107616      4.13778386     -6.72801095
  C      0.99940582      4.69882214     -7.69722664
  C      2.19947978      5.29842223     -7.34039615
  C      2.58746071      5.33037424     -6.00775724
  C      1.77580410      4.76508350     -5.03736214
  H      2.83529801      5.73516036     -8.10130876
  H     -0.75046352      3.66863017     -7.02174177
  H      2.08720594      4.77576489     -3.99747254
  H      3.52659417      5.79039761     -5.72321783
  C     -1.48980846      4.84255549     -3.48506042
  C     -2.71313865      4.56626231     -2.86739160
  C     -3.48689452      5.59265999     -2.35000753
  C     -3.04434674      6.90639268     -2.42364495
  C     -1.82651356      7.19059140     -3.02595359
  C     -1.05195878      6.16743286     -3.55066940
  H     -0.10309834      6.40060199     -4.02057978
  H     -3.64838509      7.70682941     -2.01303726
  H     -1.47680157      8.21448928     -3.08944078
  H     -3.06171469      3.54128312     -2.79625154
  H      0.69613272      4.66575128     -8.73715131
  C     -1.58287774      2.27411467     -4.76224841
  C     -1.41828452      0.91947082     -4.46781606
  C     -2.25098618     -0.03685581     -5.02754793
  C     -3.26177452      0.34940956     -5.89676879
  C     -3.44991868      1.69571919     -6.18279446
  C     -2.62413063      2.65427466     -5.61529365
  H     -3.91083027     -0.39601788     -6.34088961
  H     -4.24666858      2.00191317     -6.85053341
  H     -2.79418189      3.70370379     -5.82670144
  H     -4.43887077      5.36469828     -1.88428463
  H     -2.10735946     -1.08410098     -4.78521064
  H     -0.62549176      0.61254904     -3.79433496

