#B3LYP/6-31+G(d) OPT FREQ

246, Energy =   -372.44799004 au

0 1
 Au     -1.71911918     -3.32261583      0.37668701
 Au     -3.27905339      1.78686116      0.93965448
 Au      0.17584694     -1.38024764      0.21162510
 Au     -2.52684945     -0.86972731      0.30551343
 Au     -0.65301731      1.34102864      1.15934478
 Au      2.71754376     -1.39342688      0.67517446
 Au     -1.62327670      1.57119908     -1.27365335
 Au      1.58364674      0.82032194     -0.63050351
  P     -0.46819261      0.88905388      3.54172741
  C     -1.58782070      1.98575363      4.46649377
  C     -2.31972500      1.58101821      5.58618390
  C     -3.17964928      2.46648530      6.21795437
  C     -3.32116670      3.76426420      5.74569984
  C     -2.59826419      4.17848932      4.63511367
  C     -1.74026977      3.29461203      4.00043640
  H     -3.99638861      4.45174511      6.24132232
  H     -2.22592504      0.56723707      5.95827165
  H     -1.17982583      3.61880548      3.12960608
  H     -2.70420257      5.19040798      4.26116251
  C      1.07715216      0.85911007      4.51515077
  C      2.29174744      0.74623580      3.83552755
  C      3.49390573      0.76858148      4.52611408
  C      3.49860879      0.88933768      5.90819222
  C      2.29629669      0.99216738      6.59577463
  C      1.09394294      0.98465290      5.90651895
  H      0.16256799      1.08189246      6.45229730
  H      4.43773913      0.90655642      6.44844787
  H      2.29475234      1.08750409      7.67531847
  H      2.29595004      0.65319547      2.75425478
  H     -3.74623663      2.13855216      7.08172510
  C     -1.18153820     -0.76733779      3.78283145
  C     -2.55782790     -0.95936828      3.62403612
  C     -3.09880028     -2.23526123      3.62187577
  C     -2.27290247     -3.34390622      3.76717573
  C     -0.90614774     -3.16459294      3.93490457
  C     -0.36433570     -1.88847914      3.93517085
  H     -2.69462623     -4.34187657      3.76283392
  H     -0.25709727     -4.02202860      4.06476572
  H      0.70433918     -1.76036091      4.05955542
  H      4.42725386      0.69876940      3.97965846
  H     -4.16785432     -2.36563128      3.50122914
  H     -3.21058519     -0.10132131      3.50460291
  P     -5.51137506      2.26080113      1.52361946
  C     -6.76386628      1.52312703      0.43620048
  C     -8.03380994      1.14539141      0.87970115
  C     -8.94825454      0.59841280     -0.00768620
  C     -8.61040963      0.42203827     -1.34267081
  C     -7.35004177      0.79258791     -1.79282607
  C     -6.43319099      1.33544790     -0.90814738
  H     -9.32797654     -0.00730725     -2.03189457
  H     -8.30377606      1.27509303      1.92144266
  H     -5.44694626      1.62055231     -1.25881680
  H     -7.07715498      0.65354073     -2.83281188
  C     -5.82508556      4.04781677      1.46519170
  C     -4.73884190      4.91354695      1.61656324
  C     -4.91813863      6.28660301      1.56516770
  C     -6.18546940      6.81226808      1.35036352
  C     -7.27104115      5.96097937      1.19217939
  C     -7.09575719      4.58708090      1.24959202
  H     -7.94711924      3.92824006      1.12185787
  H     -6.32618871      7.88560343      1.30320729
  H     -8.26053350      6.36884546      1.02186300
  H     -3.74692226      4.50097037      1.77209268
  H     -9.93044311      0.30836690      0.34692481
  C     -5.97214443      1.74123184      3.20028826
  C     -5.96155302      0.37159886      3.48780314
  C     -6.22628921     -0.07893103      4.77045205
  C     -6.49692734      0.83097210      5.78502472
  C     -6.50381230      2.19125353      5.51057346
  C     -6.23727383      2.64728454      4.22780824
  H     -6.70339548      0.47844617      6.78861288
  H     -6.71763001      2.90406969      6.29853306
  H     -6.23947701      3.71168313      4.02299165
  H     -4.06746865      6.94682414      1.68950606
  H     -6.22144899     -1.14247039      4.97976264
  H     -5.75474593     -0.33975187      2.69455908
  P     -2.69094337      1.73322996     -3.43422516
  C     -3.98793823      3.01709252     -3.38944743
  C     -4.80383924      3.27119174     -4.49671468
  C     -5.81359005      4.21691974     -4.42566565
  C     -6.02654579      4.92715716     -3.25113337
  C     -5.22326069      4.68712330     -2.14623220
  C     -4.21579340      3.73676497     -2.21562679
  H     -6.81725385      5.66613600     -3.19791075
  H     -4.64747105      2.72314464     -5.41902439
  H     -3.59303796      3.55382175     -1.34695181
  H     -5.37954268      5.23835560     -1.22631275
  C     -3.68372545      0.26438881     -3.86952032
  C     -4.15354712     -0.54388094     -2.83291963
  C     -4.94826685     -1.64963468     -3.08931481
  C     -5.28861142     -1.96698032     -4.39748283
  C     -4.83378395     -1.17008721     -5.43891340
  C     -4.04166761     -0.06178748     -5.18048443
  H     -3.69718015      0.54896595     -6.00665905
  H     -5.90601082     -2.83313509     -4.60387207
  H     -5.09821863     -1.41056229     -6.46207321
  H     -3.88922744     -0.30498424     -1.80843128
  H     -6.43860723      4.40003836     -5.29179200
  C     -1.76805398      2.10831996     -4.95780904
  C     -1.62417214      3.41978366     -5.41785366
  C     -0.89130151      3.68644046     -6.56438273
  C     -0.28014883      2.65204220     -7.26076489
  C     -0.39371514      1.34798595     -6.79819949
  C     -1.12656791      1.07873620     -5.65384599
  H      0.28759455      2.86278418     -8.15924860
  H      0.08829879      0.53518656     -7.32949666
  H     -1.21626286      0.05795731     -5.30254808
  H     -5.29930991     -2.26220794     -2.26694043
  H     -0.80211956      4.70697725     -6.91827605
  H     -2.10261802      4.23473176     -4.88615516
  P      4.88149512     -1.79752350      1.54941733
  C      5.89564385     -0.28753442      1.50834401
  C      6.60262161      0.21390766      2.60278006
  C      7.29375554      1.41287220      2.50287125
  C      7.29363634      2.12355940      1.31125457
  C      6.59532661      1.63363542      0.21503760
  C      5.89388259      0.44373018      0.31620454
  H      7.83665782      3.05824155      1.23514624
  H      6.62213571     -0.33664037      3.53613422
  H      5.33853206      0.06818804     -0.53761829
  H      6.59469949      2.18395384     -0.71896811
  C      5.90811695     -3.08928665      0.78266436
  C      5.30715575     -4.33031829      0.55040244
  C      6.03813973     -5.37587576      0.01074961
  C      7.37720156     -5.19255630     -0.31220562
  C      7.97953077     -3.96087061     -0.09433737
  C      7.25159864     -2.91248317      0.45047692
  H      7.72870715     -1.95373452      0.61752480
  H      7.94996504     -6.00961886     -0.73454004
  H      9.02341663     -3.81422346     -0.34590497
  H      4.25979061     -4.47316246      0.79670308
  H      7.83680770      1.79067810      3.36139035
  C      4.87218497     -2.32871697      3.28912834
  C      3.67391607     -2.27644618      4.00173347
  C      3.61934239     -2.66525967      5.33175661
  C      4.76632703     -3.12239218      5.96501940
  C      5.96203280     -3.19734791      5.26186514
  C      6.01766560     -2.80761202      3.93309267
  H      4.72771184     -3.42756621      7.00404705
  H      6.85676148     -3.56437727      5.75098145
  H      6.95168100     -2.88378938      3.38760870
  H      5.56220950     -6.33490499     -0.15933324
  H      2.67999312     -2.61187644      5.87029760
  H      2.77873368     -1.92413319      3.50166535
  P      2.07697952      3.21339126     -0.40558240
  C      0.62267186      4.32020295     -0.45289248
  C      0.17603402      5.07334416      0.63373092
  C     -0.99115244      5.81952900      0.54893695
  C     -1.72518891      5.84404495     -0.62747795
  C     -1.28494929      5.11315986     -1.72307445
  C     -0.13484263      4.34538680     -1.63057674
  H     -2.63188041      6.43370142     -0.69486269
  H      0.74490494      5.09474934      1.55497283
  H      0.19616839      3.78064213     -2.49368864
  H     -1.83828977      5.13903356     -2.65443943
  C      3.14954210      3.84075234     -1.73499819
  C      4.16686569      2.99773633     -2.19028694
  C      5.03907720      3.41096402     -3.18399982
  C      4.89496072      4.67073299     -3.74984085
  C      3.88333160      5.51431029     -3.31121664
  C      3.01798129      5.10820794     -2.30638272
  H      2.23725368      5.77851027     -1.96625148
  H      5.56922089      4.99325899     -4.53430655
  H      3.76847438      6.49833195     -3.75064467
  H      4.26309887      2.00748018     -1.75810770
  H     -1.31978508      6.39357610      1.40779572
  C      2.96444662      3.69783465      1.11032840
  C      2.34963569      3.49175758      2.34905745
  C      2.98685475      3.84915457      3.52642550
  C      4.26781664      4.38285904      3.48857017
  C      4.90185601      4.56233106      2.26747908
  C      4.25579117      4.22950665      1.08665040
  H      4.77073515      4.65385640      4.40922872
  H      5.90474750      4.97166135      2.23039343
  H      4.75997094      4.38827125      0.14083367
  H      5.82524910      2.74651934     -3.52369065
  H      2.48474724      3.70167112      4.47548858
  H      1.36258889      3.04198963      2.38916116
  P      2.14415190     -0.03318178     -3.05575585
  C      0.90567312     -1.13872172     -3.84244049
  C      1.13480060     -1.75319352     -5.07734444
  C      0.17389490     -2.57574886     -5.64473870
  C     -1.02818440     -2.80938183     -4.98670446
  C     -1.26577254     -2.21003449     -3.75800242
  C     -0.30965964     -1.37318487     -3.20203988
  H     -1.77642837     -3.45484203     -5.43114463
  H      2.06980859     -1.58691147     -5.59953697
  H     -0.51236314     -0.89146052     -2.25359496
  H     -2.19918795     -2.38135615     -3.23441397
  C      3.58232077     -1.14921550     -2.94318042
  C      4.88912678     -0.66624961     -3.05933758
  C      5.97450516     -1.51637651     -2.90845766
  C      5.77292540     -2.85928004     -2.62373844
  C      4.48166600     -3.34178490     -2.46191707
  C      3.39523083     -2.49474990     -2.61176481
  H      2.39064890     -2.88710685     -2.49575984
  H      6.62024317     -3.52661842     -2.52101326
  H      4.31744289     -4.38593329     -2.22162924
  H      5.06115600      0.37853120     -3.28986014
  H      0.36402151     -3.03761531     -6.60650820
  C      2.56775485      1.08905705     -4.43965725
  C      1.94723737      2.33996191     -4.44857627
  C      2.22656457      3.26898742     -5.43723574
  C      3.12664304      2.95456462     -6.44637405
  C      3.73608567      1.70752098     -6.46154844
  C      3.46333229      0.78044657     -5.46677663
  H      3.35236784      3.67987224     -7.21904070
  H      4.43439282      1.45428227     -7.25078684
  H      3.95701347     -0.18398664     -5.48997280
  H      6.98008048     -1.12754566     -3.01977732
  H      1.74375719      4.23912190     -5.41698605
  H      1.24148260      2.58415113     -3.66203912
  P     -0.67861155     -5.46256537      0.38964039
  C      0.53387355     -5.65910027     -0.95644053
  C      1.68195571     -6.44745461     -0.84033952
  C      2.54758030     -6.59204834     -1.91379537
  C      2.27951830     -5.95656626     -3.11889584
  C      1.14662889     -5.16275445     -3.24238528
  C      0.28325495     -5.01234934     -2.16847229
  H      2.95052447     -6.07972048     -3.96080168
  H      1.90303243     -6.94983226      0.09414420
  H     -0.59803195     -4.38722320     -2.26875380
  H      0.93261260     -4.66372727     -4.18042048
  C     -1.77182605     -6.90263885      0.21055103
  C     -3.14972966     -6.71318573      0.33400961
  C     -4.02221612     -7.78260231      0.20444431
  C     -3.52758316     -9.05318690     -0.05440456
  C     -2.15885154     -9.25217594     -0.18386610
  C     -1.28393276     -8.18616738     -0.05376659
  H     -0.21696379     -8.34767203     -0.16007958
  H     -4.20866835     -9.88958482     -0.15834002
  H     -1.77077645    -10.24317927     -0.38863362
  H     -3.53485565     -5.71805255      0.53270761
  H      3.43146734     -7.21092586     -1.81000988
  C      0.31249153     -5.81144689      1.87420420
  C      1.49006254     -5.08488397      2.08105406
  C      2.25463406     -5.29151612      3.21684587
  C      1.84183758     -6.20520814      4.17843956
  C      0.66203370     -6.91248509      3.99591470
  C     -0.09862112     -6.71877665      2.85206785
  H      2.43994820     -6.36239542      5.06827962
  H      0.33274445     -7.62353839      4.74452458
  H     -1.01437177     -7.28204438      2.71397421
  H     -5.08962195     -7.62262821      0.30334082
  H      3.17436567     -4.73551534      3.35425968
  H      1.81094472     -4.35838318      1.34008677

