246
Energy =   -372.46284817 au
 Au     -1.68833688      0.19147925     -0.29264799
 Au      0.86532577     -1.17741914      0.55426472
 Au      0.06450483      1.83194040      0.74397883
 Au      0.69401057     -0.02797776      2.99436482
 Au      0.44852756     -3.56629941     -0.61936676
 Au      3.02022812     -0.79848117      2.15511946
 Au      0.31257369     -1.40573128     -2.06742376
 Au     -2.07062026      2.86621661     -0.46175506
  P     -3.43687705     -1.22173175     -1.10902517
  C     -3.20969784     -2.98461552     -1.50532215
  C     -2.80944301     -3.85347478     -0.48304720
  C     -2.66700689     -5.21023386     -0.73076352
  C     -2.88441563     -5.71405612     -2.00697115
  C     -3.23295174     -4.85340186     -3.03750969
  C     -3.39823868     -3.49882269     -2.78902581
  H     -2.78237470     -6.77636416     -2.19439084
  H     -2.64071712     -3.46840228      0.51706069
  H     -3.69270621     -2.83916787     -3.59693010
  H     -3.39189582     -5.23790017     -4.03828509
  C     -4.15070153     -0.51840603     -2.62800122
  C     -3.37976540      0.35108254     -3.40063870
  C     -3.90033622      0.92466091     -4.54977348
  C     -5.20123240      0.64198068     -4.94082010
  C     -5.97974301     -0.22038798     -4.17977963
  C     -5.46043545     -0.79782600     -3.03184521
  H     -6.07533731     -1.46572917     -2.43899902
  H     -5.60807367      1.09633382     -5.83656957
  H     -6.99684954     -0.44304841     -4.48028669
  H     -2.36359782      0.57899142     -3.09610957
  H     -2.39350081     -5.87799266      0.07771963
  C     -4.86246497     -1.20575466      0.02401035
  C     -5.15781597      0.00577851      0.65478124
  C     -6.23063270      0.10957808      1.52452303
  C     -7.02200694     -1.00161870      1.78483018
  C     -6.73874300     -2.21060176      1.16519055
  C     -5.66812955     -2.31522363      0.28852022
  H     -7.85867964     -0.92398950      2.46890999
  H     -7.35556111     -3.07978475      1.36176786
  H     -5.45926767     -3.26446355     -0.19060689
  H     -3.28710648      1.59433919     -5.14077979
  H     -6.45163198      1.05971657      1.99733391
  H     -4.54156602      0.87508508      0.45077686
  P      0.74231840     -5.62868340      0.52537383
  C      2.37622430     -5.79890879      1.31783063
  C      2.65654709     -5.20315305      2.54978677
  C      3.92859874     -5.27687544      3.09471276
  C      4.94455416     -5.93221772      2.41268855
  C      4.68304649     -6.51322101      1.18002175
  C      3.41065219     -6.44581379      0.63452667
  H      5.93832803     -5.98762045      2.84104560
  H      1.87420420     -4.68924627      3.09657327
  H      3.21635101     -6.90635000     -0.32761801
  H      5.47215188     -7.02260327      0.63919337
  C      0.53882114     -7.19568068     -0.36683855
  C      0.08323432     -7.15587610     -1.68625735
  C     -0.09782340     -8.32609885     -2.40733239
  C      0.18030919     -9.55223278     -1.81924911
  C      0.65270309     -9.60401377     -0.51418994
  C      0.83622758     -8.43617964      0.20897464
  H      1.22417446     -8.48350180      1.22028926
  H      0.03733938    -10.46801392     -2.38062309
  H      0.88284011    -10.55944823     -0.05729841
  H     -0.12540695     -6.19589380     -2.14740382
  H      4.12549679     -4.81969273      4.05778583
  C     -0.41187025     -5.67177247      1.93459602
  C     -0.59410756     -4.48176930      2.64701889
  C     -1.43220340     -4.43566925      3.74887832
  C     -2.13314336     -5.56991951      4.13601043
  C     -1.98845143     -6.74730936      3.41615025
  C     -1.13110152     -6.80187234      2.32681012
  H     -2.79552550     -5.53251837      4.99287851
  H     -2.54158858     -7.63314427      3.70593949
  H     -1.02450795     -7.73109740      1.77960774
  H     -0.45252111     -8.27967331     -3.43051754
  H     -1.54267468     -3.50977877      4.30110504
  H     -0.07665046     -3.58189568      2.32994049
  P      2.02648769      3.10114161      1.35001412
  C      1.73154382      4.87164807      1.65320008
  C      1.81375747      5.45026253      2.92106501
  C      1.48130794      6.78411502      3.10812496
  C      1.07131340      7.56131072      2.03416928
  C      0.98491067      6.99618908      0.76800076
  C      1.29604757      5.65963339      0.58248250
  H      0.82271724      8.60557754      2.18142079
  H      2.14936216      4.86174278      3.76701495
  H      1.21424376      5.22183475     -0.40629755
  H      0.67724362      7.59796196     -0.07930780
  C      3.13609315      3.07613335     -0.09307094
  C      3.10131586      1.95459937     -0.92542258
  C      3.89492481      1.88437098     -2.05928593
  C      4.73052272      2.94434946     -2.38618241
  C      4.77760576      4.06421135     -1.56592579
  C      3.99134648      4.13030765     -0.42570965
  H      4.03399457      5.01005739      0.20591999
  H      5.33862946      2.89953665     -3.28191492
  H      5.42905268      4.89313703     -1.81687076
  H      2.43629029      1.13237404     -0.68359154
  H      1.55166522      7.21870093      4.09848752
  C      3.08697051      2.58224847      2.74174133
  C      2.48755119      2.32759978      3.98091182
  C      3.24091486      1.90053346      5.06305510
  C      4.61029406      1.71928429      4.92560094
  C      5.21719699      1.97163539      3.70381879
  C      4.46440829      2.39377409      2.61712347
  H      5.20291011      1.38508692      5.76886634
  H      6.28674526      1.83747062      3.59193376
  H      4.95333272      2.58055905      1.66804819
  H      3.84821669      1.00969413     -2.69814065
  H      2.75452272      1.71204219      6.01327000
  H      1.42131685      2.47648760      4.10156331
  P     -1.20645974      0.78367959      4.20711924
  C     -0.84216822      1.27432093      5.91650374
  C     -1.52111265      2.29319499      6.59007093
  C     -1.17065766      2.62540744      7.88984607
  C     -0.14470436      1.94722850      8.53361991
  C      0.53420534      0.93031008      7.87497630
  C      0.19033948      0.59897303      6.57435246
  H      0.12793743      2.21206990      9.54834564
  H     -2.32144220      2.83015871      6.09388459
  H      0.72354853     -0.19166014      6.05627957
  H      1.33484555      0.39672642      8.37396149
  C     -2.55742449     -0.43119148      4.32911313
  C     -2.79671526     -1.25609781      3.22622371
  C     -3.81175542     -2.19864913      3.25661132
  C     -4.60102949     -2.33318003      4.39097148
  C     -4.36799609     -1.52395663      5.49425480
  C     -3.35282666     -0.57975517      5.46680603
  H     -3.17611394      0.04587640      6.33421781
  H     -5.39344024     -3.07200541      4.41447643
  H     -4.97902982     -1.62871517      6.38317778
  H     -2.17846081     -1.15677623      2.33893242
  H     -1.70246840      3.41902858      8.40170600
  C     -2.03694866      2.24417255      3.49733886
  C     -1.34420043      3.45857912      3.44804049
  C     -1.91566813      4.57939721      2.86820535
  C     -3.18920214      4.50333955      2.31890965
  C     -3.88135077      3.29951503      2.34729551
  C     -3.31020985      2.17795400      2.92999563
  H     -3.64529007      5.38173490      1.87842545
  H     -4.87755594      3.23746011      1.92505962
  H     -3.86456170      1.24728746      2.95190230
  H     -3.98395633     -2.83379920      2.39533653
  H     -1.36757112      5.51449285      2.84987593
  H     -0.35403301      3.53052746      3.88336979
  P      5.26361318     -1.43638863      1.65369206
  C      6.50959367     -0.16005828      1.28952569
  C      7.60732194      0.09076929      2.11508820
  C      8.49117206      1.11771032      1.81474976
  C      8.28808849      1.90994234      0.69380104
  C      7.19578825      1.67259489     -0.13075615
  C      6.31031646      0.64969170      0.16665449
  H      8.97941828      2.71132187      0.46155481
  H      7.77738501     -0.52386476      2.99140916
  H      5.45713668      0.46801877     -0.47891076
  H      7.03085150      2.28745780     -1.00828016
  C      5.32244885     -2.48212122      0.16217949
  C      4.16898771     -3.17855075     -0.20044545
  C      4.14340821     -3.97469651     -1.33320703
  C      5.28153751     -4.10178718     -2.11757834
  C      6.43791099     -3.41628640     -1.76751822
  C      6.45860335     -2.60625241     -0.64214566
  H      7.36134583     -2.06112509     -0.39173946
  H      5.26749713     -4.73250710     -2.99860147
  H      7.32931002     -3.51025532     -2.37681102
  H      3.28122797     -3.09502320      0.41616634
  H      9.34270292      1.29702171      2.46073015
  C      6.03287362     -2.43810184      2.96069682
  C      5.51143218     -2.33956837      4.25277461
  C      6.06494493     -3.06639917      5.29571529
  C      7.14660354     -3.90373885      5.05880771
  C      7.67218377     -4.01163064      3.77745162
  C      7.12093784     -3.28504452      2.73324717
  H      7.57936350     -4.47413966      5.87211586
  H      8.51761511     -4.66331364      3.59008958
  H      7.53419762     -3.37914649      1.73539826
  H      3.23176771     -4.49759554     -1.60121781
  H      5.65078054     -2.97913741      6.29346419
  H      4.66441453     -1.68589304      4.43569466
  P      0.63727618     -0.28018174     -4.15401805
  C     -0.66716396     -0.42284761     -5.41360987
  C     -0.94846482      0.56375313     -6.36104040
  C     -1.96482561      0.37537271     -7.28661028
  C     -2.71267551     -0.79445443     -7.27627455
  C     -2.44492899     -1.77920182     -6.33424577
  C     -1.43253690     -1.59276300     -5.40733276
  H     -3.50678106     -0.93704700     -7.99960431
  H     -0.37343177      1.48275521     -6.37406135
  H     -1.22830094     -2.35815389     -4.66513930
  H     -3.02864111     -2.69244419     -6.31983811
  C      2.11339513     -0.98374651     -4.95235536
  C      3.17079495     -1.36584831     -4.12172328
  C      4.34666822     -1.86245824     -4.65924712
  C      4.47708149     -2.00087199     -6.03485131
  C      3.42699143     -1.64160232     -6.86830529
  C      2.25230555     -1.13320111     -6.33374929
  H      1.43702758     -0.85615258     -6.99241591
  H      5.39511060     -2.39379484     -6.45571412
  H      3.52235197     -1.75481390     -7.94195599
  H      3.06413085     -1.27631371     -3.04508447
  H     -2.17260826      1.14699457     -8.01892997
  C      1.05181642      1.49652923     -4.10394575
  C      0.54875473      2.25552446     -3.04875644
  C      0.86119873      3.59978390     -2.92423737
  C      1.68332682      4.20960624     -3.86130474
  C      2.18978111      3.46591244     -4.91896152
  C      1.88305851      2.11890369     -5.03926776
  H      1.93404121      5.25923710     -3.76357674
  H      2.83481822      3.93609161     -5.65208450
  H      2.29952520      1.54528992     -5.85939026
  H      5.16038918     -2.14686184     -4.00178127
  H      0.47054353      4.16450921     -2.08550719
  H     -0.08955155      1.78107640     -2.31296250
  P     -3.67159931      4.28693618     -1.47089013
  C     -5.35340633      3.77496085     -1.01362422
  C     -6.12976258      4.45785982     -0.07523848
  C     -7.36370006      3.95582324      0.31359108
  C     -7.83619462      2.76555492     -0.22172349
  C     -7.06881474      2.07372173     -1.15025851
  C     -5.83473989      2.56997811     -1.53608400
  H     -8.80051255      2.37692597      0.08348338
  H     -5.77447925      5.39144014      0.34590197
  H     -5.23401650      2.02462183     -2.25496094
  H     -7.42782588      1.14138987     -1.57133789
  C     -3.68503397      4.24881094     -3.29216166
  C     -2.46247012      4.10152409     -3.95006990
  C     -2.39674730      4.09550531     -5.33450084
  C     -3.55868074      4.23381072     -6.08312663
  C     -4.78092554      4.37780454     -5.43982877
  C     -4.84727111      4.38736967     -4.05477880
  H     -5.80817447      4.49758656     -3.56567727
  H     -3.51148926      4.22844286     -7.16572041
  H     -5.68999675      4.48567467     -6.02003140
  H     -1.55575728      3.98685642     -3.36757461
  H     -7.95831069      4.49965791      1.03837907
  C     -3.59447832      6.06296995     -1.08829841
  C     -2.53903321      6.55128196     -0.31609061
  C     -2.46786349      7.89842713      0.00545787
  C     -3.44125725      8.77519882     -0.45196367
  C     -4.48602857      8.30262104     -1.23576975
  C     -4.56491205      6.95642514     -1.55285330
  H     -3.38510613      9.82759673     -0.19998270
  H     -5.24474330      8.98544468     -1.59988098
  H     -5.38339367      6.59371134     -2.16470532
  H     -1.43789744      3.98233983     -5.82785479
  H     -1.65137796      8.26341386      0.61782107
  H     -1.77081574      5.86875140      0.03359239
