#B3LYP/6-31+G(d) OPT FREQ

246, Energy =   -372.37053916 au

0 1
 Au     -1.02380928      0.05566761     -2.85274249
 Au     -0.23556876     -1.85437489      3.86515205
 Au     -0.17178754     -3.07513968      1.39101388
 Au     -1.94298936      1.83848239      2.19493155
 Au     -0.83141167     -0.42828474      1.80283489
 Au     -0.67232902     -1.46812519     -0.77299575
 Au      1.42525662     -3.17593537     -0.72855567
 Au     -0.80500820      1.30015363     -0.37307131
  P      2.58851633      2.75306648      4.10961797
  C      2.71860268      1.72816180      2.57136822
  C      2.41121097      0.36926595      2.50837353
  C      2.54937043     -0.33543541      1.32391068
  C      2.97537069      0.30855936      0.17072334
  C      3.30621047      1.65504956      0.22107733
  C      3.18342208      2.35377243      1.41319934
  H      3.06305440     -0.24602503     -0.75636302
  H      2.07470719     -0.15318340      3.39633100
  H      3.45375618      3.40320759      1.44897171
  H      3.66524540      2.16102519     -0.66783067
  C      1.20533537      1.84162725      4.93686100
  C      1.34881030      0.66635988      5.67494593
  C      0.24435353      0.05049175      6.25349383
  C     -1.02440640      0.60116706      6.10880248
  C     -1.17867546      1.78419866      5.39765472
  C     -0.07367482      2.39465362      4.82039096
  H     -0.20054866      3.33234471      4.28963979
  H     -1.88077160      0.12560657      6.57189412
  H     -2.15643710      2.24443751      5.31376096
  H      2.33143430      0.23210219      5.81804864
  H      2.33789824     -1.39839948      1.30469940
  C      4.04582790      2.07935696      5.01156819
  C      4.09911607      2.20738009      6.40421519
  C      5.23617774      1.84321251      7.10803912
  C      6.35190735      1.36492995      6.43310944
  C      6.31898697      1.24696225      5.04998103
  C      5.17856306      1.60354986      4.34516050
  H      7.24701760      1.09639285      6.98162386
  H      7.18850695      0.88290990      4.51385295
  H      5.17347626      1.51141642      3.26449857
  H      0.38294920     -0.84151716      6.85381012
  H      5.25600532      1.94377955      8.18706922
  H      3.24039463      2.59808696      6.94013878
  P     -1.41315862      0.83207551     -5.05975602
  C     -0.43516806      2.11260199     -5.91125202
  C      0.65139374      1.75751421     -6.71543577
  C      1.37141790      2.72771187     -7.39479455
  C      1.02579538      4.06706648     -7.27380583
  C     -0.03001139      4.43443473     -6.44994907
  C     -0.75016903      3.46686792     -5.76732152
  H      1.57953785      4.82290170     -7.81787874
  H      0.92399787      0.71354528     -6.82380903
  H     -1.57378523      3.76492813     -5.12884485
  H     -0.29866866      5.47885010     -6.34081337
  C     -3.13344982      1.39496964     -5.23751019
  C     -4.04718766      1.03098731     -4.24462692
  C     -5.38657382      1.37045211     -4.35089110
  C     -5.83004917      2.10629437     -5.44150262
  C     -4.92890271      2.49565606     -6.42314325
  C     -3.59230827      2.13980834     -6.32818427
  H     -2.90201166      2.44909117     -7.10429643
  H     -6.87599570      2.37650876     -5.52526800
  H     -5.26891375      3.07488711     -7.27366550
  H     -3.70159734      0.47050029     -3.38248009
  H      2.20104655      2.43465224     -8.02767318
  C     -1.26389126     -0.58760478     -6.19012022
  C     -0.63844624     -1.74766910     -5.73011609
  C     -0.50258982     -2.85522759     -6.55247751
  C     -0.99669726     -2.81966982     -7.84854403
  C     -1.61815422     -1.67064129     -8.32025800
  C     -1.74889595     -0.56049201     -7.50149949
  H     -0.89823636     -3.68650125     -8.49112855
  H     -2.00432912     -1.63842030     -9.33233107
  H     -2.23502783      0.33090590     -7.88067652
  H     -6.08582396      1.05362040     -3.58571637
  H     -0.01260815     -3.74715226     -6.17925814
  H     -0.26023475     -1.77862312     -4.71357727
  P     -4.13190341     -4.25047710     -1.91306114
  C     -2.32181561     -4.64064963     -1.96781070
  C     -1.46281988     -4.29918662     -3.01397381
  C     -0.15953247     -4.77515236     -3.05209457
  C      0.31193252     -5.60852931     -2.04328207
  C     -0.52754493     -5.94540471     -0.98607024
  C     -1.82977066     -5.47028008     -0.95429957
  H      1.30811440     -6.02903512     -2.10435774
  H     -1.81668964     -3.67978185     -3.82956341
  H     -2.48806166     -5.77171054     -0.14643342
  H     -0.17132134     -6.60660531     -0.20503598
  C     -4.12991095     -2.67687741     -0.94884513
  C     -4.86893227     -1.55594823     -1.34032860
  C     -5.03272627     -0.47198715     -0.49007318
  C     -4.50058700     -0.49911847      0.79066366
  C     -3.79266168     -1.61797613      1.21024531
  C     -3.59999740     -2.68673702      0.34712452
  H     -3.06444638     -3.56101748      0.70271139
  H     -4.65868865      0.33179335      1.46917984
  H     -3.42013807     -1.67502146      2.22660082
  H     -5.34012464     -1.53192936     -2.31612681
  H      0.48396075     -4.52121023     -3.88694650
  C     -4.42377526     -3.66504961     -3.63374113
  C     -5.23833528     -4.48873140     -4.41708882
  C     -5.54390409     -4.15858149     -5.72845022
  C     -5.04890850     -2.98475477     -6.27753089
  C     -4.24141708     -2.15470265     -5.51254093
  C     -3.92153142     -2.49332485     -4.20647841
  H     -5.29134938     -2.71263964     -7.29832720
  H     -3.85898367     -1.23470941     -5.93850673
  H     -3.28029425     -1.83495893     -3.62705635
  H     -5.60633924      0.38666577     -0.82088541
  H     -6.17464954     -4.81298637     -6.31880834
  H     -5.63692168     -5.40044187     -3.98425940
  P      3.63913298     -3.46618655     -1.48416862
  C      4.81813315     -2.79319260     -0.26966204
  C      4.97796365     -3.46489923      0.94684404
  C      5.76037104     -2.92595560      1.95476733
  C      6.38456926     -1.69843845      1.77210027
  C      6.22590231     -1.01799129      0.57369195
  C      5.44774450     -1.55794937     -0.43993016
  H      6.99465042     -1.27498530      2.56142230
  H      4.48833726     -4.41969584      1.10508145
  H      5.33193898     -1.01151120     -1.36875491
  H      6.70692388     -0.05824629      0.42428306
  C      3.98935755     -2.63410735     -3.05790155
  C      2.90125008     -2.18423394     -3.80956386
  C      3.09134320     -1.55341643     -5.02916726
  C      4.37809373     -1.35872700     -5.51409930
  C      5.46910912     -1.79479479     -4.77396897
  C      5.28080811     -2.42854042     -3.55517191
  H      6.14082746     -2.76033898     -2.98509295
  H      4.52982800     -0.86658150     -6.46757470
  H      6.47455417     -1.64208405     -5.14844416
  H      1.89531363     -2.33120797     -3.42970614
  H      5.88166332     -3.46630976      2.88667901
  C      4.12598083     -5.20676055     -1.68264652
  C      3.59042662     -6.13031044     -0.77802007
  C      3.91973452     -7.47356659     -0.86333131
  C      4.77597821     -7.91688602     -1.86217069
  C      5.29720649     -7.01185064     -2.77610522
  C      4.97564369     -5.66570345     -2.69043335
  H      5.02991471     -8.96788452     -1.93251103
  H      5.95854192     -7.35405088     -3.56354026
  H      5.38519125     -4.97284585     -3.41585720
  H      2.23388336     -1.21833437     -5.60261704
  H      3.49980382     -8.17666581     -0.15315164
  H      2.90647896     -5.79127104     -0.00611324
  P      0.85539429     -3.46929357      5.19963813
  C      1.24147042     -4.87869195      4.11258685
  C      2.53090905     -5.34216886      3.85442538
  C      2.73342765     -6.39956725      2.97793060
  C      1.65413348     -7.01280838      2.35777531
  C      0.36447999     -6.56148017      2.60928478
  C      0.16017052     -5.49525716      3.47038179
  H      1.81423447     -7.84848959      1.68676492
  H      3.38250113     -4.88238878      4.34208764
  H     -0.84886789     -5.15513555      3.67699171
  H     -0.48508431     -7.04484148      2.14166901
  C      0.04601961     -4.22216789      6.63683763
  C     -1.10304676     -3.63269973      7.16785233
  C     -1.73044887     -4.19074909      8.27103664
  C     -1.22014091     -5.34405614      8.85051689
  C     -0.08189747     -5.94182551      8.32436008
  C      0.55018479     -5.38835271      7.22308686
  H      1.43564151     -5.85961953      6.81098972
  H     -1.71167533     -5.78080503      9.71178724
  H      0.31536461     -6.84470247      8.77322502
  H     -1.50570771     -2.73504510      6.71030035
  H      3.74106534     -6.75175144      2.78922057
  C      2.45890453     -2.84911613      5.77242644
  C      3.32972852     -2.30802057      4.81860596
  C      4.53158185     -1.74155266      5.20741339
  C      4.87942487     -1.70230111      6.55175628
  C      4.01868386     -2.22531725      7.50536602
  C      2.81167533     -2.79092245      7.12156010
  H      5.81825931     -1.25384159      6.85389349
  H      4.28441332     -2.19051648      8.55538217
  H      2.14266094     -3.19285406      7.87353175
  H     -2.62100025     -3.72490701      8.67653960
  H      5.19336830     -1.31775049      4.46100486
  H      3.05886199     -2.33486170      3.76801382
  P      0.08618036      3.43761765     -1.15572786
  C     -1.16937176      4.55264043     -1.86350248
  C     -1.15106099      5.93973865     -1.70183370
  C     -2.13675032      6.72621938     -2.28067867
  C     -3.14685167      6.14268916     -3.03252014
  C     -3.17598117      4.76425502     -3.19852969
  C     -2.20065663      3.97561764     -2.60876577
  H     -3.91335921      6.75973958     -3.48608113
  H     -0.36252931      6.40605468     -1.12245155
  H     -2.23749446      2.89659452     -2.72292192
  H     -3.96493149      4.30145647     -3.78020324
  C      1.24457512      3.21967787     -2.54778920
  C      1.84577273      1.97302938     -2.72979770
  C      2.78200792      1.77256978     -3.73164191
  C      3.13949370      2.82357242     -4.56408585
  C      2.53672445      4.06419310     -4.40597611
  C      1.58649308      4.26087206     -3.41556043
  H      1.09988693      5.22533183     -3.32331122
  H      3.87841385      2.67361561     -5.34236744
  H      2.80171624      4.88372717     -5.06360798
  H      1.57852993      1.15343251     -2.07338228
  H     -2.11133563      7.80127285     -2.14583412
  C      1.00440188      4.49345370      0.01706108
  C      0.59718400      4.48076560      1.35275532
  C      1.24306991      5.25519509      2.30212221
  C      2.31555680      6.05580063      1.93267551
  C      2.74074357      6.06751950      0.61166553
  C      2.09479024      5.29161295     -0.33922192
  H      2.82318364      6.66042735      2.67464438
  H      3.58301966      6.68233052      0.31668384
  H      2.44980746      5.30442473     -1.36263037
  H      3.23376906      0.79534092     -3.85822913
  H      0.91252037      5.23017254      3.33392579
  H     -0.23323633      3.84866970      1.65031400
  P     -3.29030398      3.75954013      2.42485546
  C     -4.36930110      4.02282591      0.98328817
  C     -5.28618375      5.07825172      0.93740464
  C     -6.12440845      5.23383088     -0.15437412
  C     -6.06701171      4.33639524     -1.21279662
  C     -5.16002497      3.28716989     -1.17809731
  C     -4.31581977      3.13370367     -0.08971001
  H     -6.72745009      4.45495613     -2.06373665
  H     -5.34329712      5.77906271      1.76255424
  H     -3.60437516      2.31465116     -0.07311177
  H     -5.10487594      2.58694665     -2.00312109
  C     -2.46514345      5.35764905      2.67278439
  C     -1.95782664      5.68568480      3.93444951
  C     -1.25918043      6.86752864      4.12532228
  C     -1.04608611      7.73181997      3.05878219
  C     -1.53251334      7.40830331      1.79970933
  C     -2.23265301      6.22778763      1.60466215
  H     -2.60682550      5.98213358      0.61701056
  H     -0.50028325      8.65559430      3.20949221
  H     -1.36704231      8.07790380      0.96342513
  H     -2.12277411      5.01626891      4.77165640
  H     -6.82914281      6.05675901     -0.17728912
  C     -4.45474882      3.61173730      3.81072301
  C     -4.81018011      2.32822402      4.23428135
  C     -5.72034329      2.15040111      5.26356119
  C     -6.28563840      3.25451611      5.88715301
  C     -5.93732686      4.53454916      5.47765519
  C     -5.02899388      4.71619191      4.44651912
  H     -6.99601137      3.11747331      6.69378447
  H     -6.37506311      5.39884922      5.96339791
  H     -4.76115687      5.72032919      4.13835611
  H     -0.88163711      7.11523359      5.11050434
  H     -5.98660176      1.14863567      5.58022984
  H     -4.36723032      1.46465149      3.74822836

