#B3LYP/6-31+G(d) OPT FREQ

246, Energy =   -372.43405282 au

0 1
 Au      1.25865850     -2.64998773     -0.55932333
 Au      2.68090279     -0.80989031      1.09349155
 Au      0.16266784     -0.26285727      0.17097920
 Au     -2.39991950     -0.16875506     -0.46728767
 Au     -1.06529433      2.06861030      0.86206946
 Au      1.83610041      1.93593618      0.78047443
 Au     -0.46232436     -1.04864459     -2.28123181
 Au      0.53584954      0.64064279      2.73387807
  P     -1.88372069      4.32913397      1.08460956
  C     -3.63429792      4.83472366      1.06523712
  C     -4.26826650      5.45184645      2.14448879
  C     -5.60591454      5.81016694      2.05767986
  C     -6.32609435      5.55181690      0.89952087
  C     -5.70619743      4.92771587     -0.17593490
  C     -4.37112414      4.56803936     -0.09300554
  H     -7.36986366      5.83522231      0.83407768
  H     -3.71422461      5.65744401      3.05300477
  H     -3.88939128      4.07961591     -0.93416077
  H     -6.26418637      4.72203030     -1.08237357
  C     -1.12211698      5.47652764     -0.10593927
  C     -0.07604854      5.01676631     -0.90822092
  C      0.55575065      5.86345054     -1.80599646
  C      0.14156981      7.18306491     -1.92299364
  C     -0.91079097      7.64800243     -1.14549452
  C     -1.54102500      6.80348472     -0.24468557
  H     -2.36867804      7.17234827      0.35059781
  H      0.63468087      7.84648745     -2.62367583
  H     -1.24327569      8.67511672     -1.24058132
  H      0.24475167      3.98353395     -0.82598912
  H     -6.08513492      6.29778699      2.89862709
  C     -1.27457705      4.86767125      2.71362314
  C     -1.38623112      3.94738740      3.76101187
  C     -0.90791380      4.24770217      5.02521897
  C     -0.29943645      5.47365219      5.26107947
  C     -0.17785936      6.39406103      4.22953958
  C     -0.66263813      6.09632687      2.96413331
  H      0.08360891      5.70816049      6.24724184
  H      0.29674042      7.35172108      4.40977132
  H     -0.56593089      6.82559741      2.16806888
  H      1.37540168      5.49193151     -2.41079531
  H     -1.00275539      3.52161654      5.82498148
  H     -1.85751463      2.98769225      3.57569414
  P      3.10768429     -4.08885347     -1.23749908
  C      3.42553817     -4.65314868     -2.93912084
  C      4.59329055     -4.35257552     -3.64185704
  C      4.76288416     -4.80387082     -4.94255396
  C      3.77139081     -5.55583754     -5.55759240
  C      2.59787711     -5.84644012     -4.87291480
  C      2.42352739     -5.39406318     -3.57576400
  H      3.91150240     -5.91480314     -6.57040521
  H      5.37691181     -3.77288819     -3.16778556
  H      1.50702291     -5.62481119     -3.04219131
  H      1.81715745     -6.42645096     -5.35139992
  C      3.16296239     -5.60295620     -0.23226439
  C      2.80695749     -5.48408033      1.11534297
  C      2.82050188     -6.58753531      1.95139649
  C      3.16735958     -7.83456165      1.44709660
  C      3.50374830     -7.96856638      0.10765606
  C      3.50692218     -6.86158303     -0.72815663
  H      3.77887933     -6.97784407     -1.77072777
  H      3.16824959     -8.70120910      2.09751979
  H      3.76931822     -8.94079561     -0.29097875
  H      2.51456825     -4.51369973      1.50426132
  H      5.67849925     -4.57294515     -5.47461170
  C      4.61414162     -3.18960736     -0.74285604
  C      4.75630004     -1.87086597     -1.19301468
  C      5.81733553     -1.08685894     -0.76867095
  C      6.74763485     -1.60416186      0.12370716
  C      6.61834358     -2.90901667      0.57608340
  C      5.56012173     -3.69791279      0.14719222
  H      7.57062870     -0.98758512      0.46589687
  H      7.34493456     -3.31827010      1.26858838
  H      5.46921420     -4.71432890      0.51178854
  H      2.54926932     -6.47677634      2.99500903
  H      5.91425248     -0.06966163     -1.13145114
  H      4.03104203     -1.46300898     -1.88913247
  P     -0.70856254     -4.15204183      0.36157571
  C     -1.73026355     -3.65176847      1.79979099
  C     -2.85867471     -4.36332189      2.22200401
  C     -3.59315449     -3.93390953      3.31686506
  C     -3.21263944     -2.79530754      4.01578733
  C     -2.08268174     -2.09302702      3.62119885
  C     -1.35079343     -2.52262986      2.52505426
  H     -3.78639751     -2.46460829      4.87367845
  H     -3.15423695     -5.26599318      1.69948154
  H     -0.45787011     -1.97951312      2.23509442
  H     -1.75907199     -1.21961584      4.17643973
  C     -0.61581346     -5.96862134      0.57585227
  C     -0.55465900     -6.83213717     -0.52046025
  C     -0.38053348     -8.19501057     -0.33715930
  C     -0.25771855     -8.71853669      0.94238445
  C     -0.30284440     -7.86936026      2.03962300
  C     -0.46955562     -6.50523650      1.85965736
  H     -0.49160976     -5.85118236      2.72454222
  H     -0.12448222     -9.78444280      1.08398869
  H     -0.20281586     -8.26893892      3.04220533
  H     -0.65536886     -6.44169016     -1.52678235
  H     -4.46412073     -4.49710555      3.63174982
  C     -1.85697818     -3.99833321     -1.05577830
  C     -3.22325414     -3.73347788     -0.96164685
  C     -4.00654230     -3.65625434     -2.10488084
  C     -3.44295838     -3.83251281     -3.36071995
  C     -2.07844516     -4.06077931     -3.47291763
  C     -1.29463001     -4.13164247     -2.33162917
  H     -4.06252129     -3.78141591     -4.24810830
  H     -1.62115345     -4.18467460     -4.44801534
  H     -0.22902250     -4.30362547     -2.42757551
  H     -0.34310994     -8.85052094     -1.19969239
  H     -5.06849548     -3.46092417     -2.01209645
  H     -3.68786065     -3.59036944      0.00718604
  P      3.53967202      3.26424460     -0.14986442
  C      3.63630441      5.02873059      0.27101130
  C      4.75500585      5.80687439     -0.04382144
  C      4.79256900      7.14860806      0.30027426
  C      3.72285090      7.72872516      0.96957245
  C      2.61685232      6.95999791      1.30359859
  C      2.57446619      5.61785096      0.95996004
  H      3.75536545      8.77801074      1.23812650
  H      5.60211433      5.35678984     -0.54920684
  H      1.71051537      5.01809887      1.22759374
  H      1.78476833      7.40604203      1.83600473
  C      3.55567120      3.13489637     -1.96194338
  C      3.32759921      1.86250746     -2.49693437
  C      3.31700922      1.66249864     -3.86625283
  C      3.52300609      2.73489596     -4.72467616
  C      3.72902200      4.00541556     -4.20637307
  C      3.74431556      4.20814907     -2.83358966
  H      3.91322089      5.20398135     -2.44053311
  H      3.51530127      2.57991237     -5.79701989
  H      3.88195787      4.84582231     -4.87343622
  H      3.15948052      1.02471286     -1.82751303
  H      5.66309083      7.74294547      0.04848831
  C      5.16368211      2.61694174      0.35192788
  C      5.29667175      2.12387195      1.65258430
  C      6.51415186      1.64165711      2.10334659
  C      7.61733427      1.64374769      1.25937302
  C      7.49402081      2.12147728     -0.03867462
  C      6.27515332      2.60326544     -0.49381260
  H      8.57243847      1.27452946      1.61374004
  H      8.35116762      2.12056433     -0.70182370
  H      6.18630888      2.96877380     -1.51044513
  H      3.14411120      0.66891199     -4.26485118
  H      6.60135533      1.26209623      3.11496262
  H      4.43648434      2.12142681      2.31439467
  P     -0.78047449     -0.75240671     -4.62549390
  C     -0.21898458      0.93207890     -5.03875442
  C      0.36985922      1.28261551     -6.25457935
  C      0.69737377      2.60469456     -6.51887057
  C      0.43875196      3.59245565     -5.57802805
  C     -0.14318617      3.25386381     -4.36347537
  C     -0.46500022      1.93400929     -4.09583205
  H      0.69210583      4.62471707     -5.78942083
  H      0.57345689      0.52020307     -6.99765491
  H     -0.91902062      1.67222568     -3.14527181
  H     -0.34925404      4.01945153     -3.62389997
  C     -2.50843472     -0.65768035     -5.19326452
  C     -3.54013806     -0.80839880     -4.26678181
  C     -4.86483183     -0.67938730     -4.65511065
  C     -5.17622546     -0.39409405     -5.97654704
  C     -4.15757737     -0.23395674     -6.90722415
  C     -2.83304883     -0.35939481     -6.52058407
  H     -2.04357860     -0.21783423     -7.25037136
  H     -6.21132758     -0.29268920     -6.28068283
  H     -4.39615833     -0.00567601     -7.93944514
  H     -3.30117723     -1.03075536     -3.23216558
  H      1.15029434      2.86502737     -7.46851449
  C      0.08864810     -1.84131208     -5.78864532
  C      1.48762130     -1.85159135     -5.74507824
  C      2.21112649     -2.71671803     -6.54780806
  C      1.54873393     -3.60024301     -7.39107107
  C      0.16181154     -3.61738493     -7.42307843
  C     -0.56669422     -2.74724963     -6.62510306
  H      2.11517207     -4.27811807     -8.01862239
  H     -0.35860675     -4.31069591     -8.07356288
  H     -1.64992413     -2.76671508     -6.66077904
  H     -5.65457400     -0.79982870     -3.92219337
  H      3.29446424     -2.70820496     -6.51055627
  H      2.00739045     -1.17146922     -5.07726310
  P      1.32245406      0.35318540      4.96707313
  C      1.85645609      1.92536001      5.70142472
  C      1.75204098      2.22068509      7.06183650
  C      2.16666654      3.45404968      7.54259590
  C      2.68939380      4.40466583      6.67653998
  C      2.79202079      4.12372713      5.31934366
  C      2.37247540      2.89634082      4.83647969
  H      3.01477664      5.36569570      7.05690717
  H      1.34717526      1.48294094      7.74495760
  H      2.44121927      2.68186890      3.77406596
  H      3.19133718      4.86459009      4.63593339
  C      2.86454814     -0.58177823      4.72353756
  C      2.78654345     -1.77892855      3.99929272
  C      3.93733945     -2.46580851      3.64043179
  C      5.18407264     -1.96620855      3.99688710
  C      5.27157631     -0.78962633      4.72610776
  C      4.12202179     -0.09743627      5.08270163
  H      4.20639189      0.82765507      5.64090315
  H      6.08341101     -2.49651405      3.70646229
  H      6.24092702     -0.40332758      5.01943973
  H      1.81491594     -2.17922008      3.73095718
  H      2.08232519      3.67231699      8.60077118
  C      0.38717392     -0.52635368      6.25006464
  C     -0.91595462     -0.08771156      6.51295884
  C     -1.70610535     -0.74841432      7.43901868
  C     -1.21043727     -1.86252188      8.10484394
  C      0.07769882     -2.30890986      7.84524602
  C      0.87484858     -1.64812402      6.92251039
  H     -1.83019537     -2.38279325      8.82552297
  H      0.46676143     -3.17733755      8.36399484
  H      1.87997622     -2.00256596      6.72520468
  H      3.85963210     -3.39335712      3.08568691
  H     -2.71171197     -0.39640063      7.63829920
  H     -1.30442883      0.78096379      5.98987424
  P     -4.72219870      0.17070784     -0.14649987
  C     -5.85425031     -1.24092553      0.04396417
  C     -5.82508499     -1.98550636      1.22742298
  C     -6.61218405     -3.11729979      1.36616527
  C     -7.43367565     -3.52939067      0.32532880
  C     -7.45980918     -2.80643535     -0.85917959
  C     -6.66979284     -1.67517960     -1.00440908
  H     -8.05072185     -4.41297634      0.43674625
  H     -5.18825622     -1.67247753      2.04788237
  H     -6.69431022     -1.12326595     -1.93715308
  H     -8.09698635     -3.12253228     -1.67687163
  C     -5.47484449      1.25955107     -1.38631270
  C     -4.62194361      1.86828778     -2.31121047
  C     -5.12023126      2.71645319     -3.28734260
  C     -6.48390421      2.97053338     -3.35145820
  C     -7.34367268      2.36919302     -2.44110810
  C     -6.84724182      1.51698107     -1.46626713
  H     -7.52985099      1.04271956     -0.77061640
  H     -6.87761591      3.63117600     -4.11475026
  H     -8.40895574      2.56144312     -2.49264347
  H     -3.55708013      1.66312829     -2.26673449
  H     -6.58468438     -3.67904654      2.29282581
  C     -4.87157517      1.03874646      1.45077193
  C     -3.95799902      0.69633775      2.45206102
  C     -4.00330322      1.30488498      3.69642388
  C     -4.96454157      2.27130775      3.95980161
  C     -5.87653920      2.62008751      2.97339515
  C     -5.83143417      2.01230273      1.72751459
  H     -5.00187535      2.75169103      4.93035174
  H     -6.62856019      3.37457079      3.17255934
  H     -6.54378037      2.30691729      0.96598416
  H     -4.44421116      3.17448843     -4.00013299
  H     -3.28985497      1.01874069      4.46133761
  H     -3.20544935     -0.05852847      2.25256285

