246
Energy =   -372.44473508 au
 Au     -2.73708760      0.06061732      3.96605767
 Au     -0.99270988     -0.80075895      2.15278657
 Au      0.43137578      0.85374627      0.18814757
 Au     -0.27294422      0.11930855     -2.46790504
 Au     -3.47390319     -0.08821585      1.48689789
 Au      1.62106773     -1.07996304      2.05402083
 Au      0.11726351     -1.72354548     -0.32720743
 Au      2.24772359     -0.28931168     -1.56040674
  P     -3.11207535      0.92076871      6.14073734
  C     -3.49518648     -0.29056901      7.44087418
  C     -3.61136979      0.06002170      8.78953335
  C     -3.93596764     -0.89890401      9.73522111
  C     -4.15133224     -2.21618912      9.35055161
  C     -4.03916087     -2.57480257      8.01461170
  C     -3.71269400     -1.61793160      7.06622339
  H     -4.40641271     -2.96288380     10.09332028
  H     -3.44493158      1.08580636      9.09870405
  H     -3.62217731     -1.89804268      6.02155948
  H     -4.20536913     -3.60153444      7.70950775
  C     -4.55670539      2.03030580      6.13885743
  C     -5.47751915      1.90861849      5.09463479
  C     -6.59883416      2.72142610      5.03744356
  C     -6.81833697      3.66808566      6.02854105
  C     -5.91459246      3.79491278      7.07520594
  C     -4.79157129      2.98436271      7.13244228
  H     -4.09081361      3.09703561      7.95184003
  H     -7.69244801      4.30716385      5.98545098
  H     -6.08404499      4.53104845      7.85245321
  H     -5.30953181      1.16672994      4.32064988
  H     -4.02248160     -0.61643471     10.77802112
  C     -1.77028854      1.93618812      6.83044128
  C     -0.79278931      1.36608169      7.65041417
  C      0.27273403      2.12591900      8.10894774
  C      0.38500068      3.46152900      7.74551435
  C     -0.56394014      4.03053865      6.90633669
  C     -1.62941987      3.27325272      6.44648836
  H      1.21221658      4.05721447      8.11335829
  H     -0.47518642      5.06947268      6.61001362
  H     -2.36718338      3.72713068      5.79378741
  H     -7.29844824      2.61638966      4.21534419
  H      1.01553692      1.67399368      8.75639983
  H     -0.87372259      0.32450567      7.94100522
  P      3.89540257     -0.91506191      2.83504404
  C      4.71081067      0.67957900      2.48762174
  C      5.94492427      1.03042896      3.04324232
  C      6.51321623      2.26503440      2.76920763
  C      5.86604568      3.16349407      1.92960016
  C      4.64789323      2.82049341      1.36060012
  C      4.07583699      1.58896489      1.64191323
  H      6.31152048      4.12857346      1.71906830
  H      6.46179791      0.33475067      3.69442182
  H      3.11743742      1.32913877      1.20460002
  H      4.13715842      3.51386329      0.70184298
  C      5.05473980     -2.16092669      2.18211683
  C      4.75445656     -2.73928385      0.94766686
  C      5.56771430     -3.72246051      0.40697229
  C      6.70210745     -4.13537207      1.09293604
  C      7.01819400     -3.55908716      2.31598595
  C      6.20083784     -2.58089201      2.86116652
  H      6.44882587     -2.14839350      3.82370631
  H      7.33823420     -4.90655341      0.67478177
  H      7.90387286     -3.87801126      2.85307336
  H      3.86939417     -2.41159625      0.41149370
  H      7.46522331      2.52852981      3.21500713
  C      4.02206946     -1.09828227      4.63779113
  C      4.13277837     -0.00142245      5.49544324
  C      4.09281216     -0.17601460      6.87067282
  C      3.93464960     -1.44513540      7.40927452
  C      3.81390160     -2.54252722      6.56645707
  C      3.84846243     -2.37127640      5.19228475
  H      3.90324411     -1.57940197      8.48406667
  H      3.68787548     -3.53582783      6.98144501
  H      3.74418721     -3.23108506      4.53879068
  H      5.31552851     -4.16462920     -0.55044274
  H      4.18524218      0.68529694      7.52257109
  H      4.25534733      0.99485384      5.08637140
  P     -0.87141504      0.50489678     -4.76579253
  C     -0.02941762      1.98394803     -5.41694293
  C      0.15254797      2.21147654     -6.78475727
  C      0.77718296      3.36752189     -7.22810870
  C      1.23540011      4.31022988     -6.31621357
  C      1.08454844      4.08252653     -4.95546306
  C      0.46328837      2.92592639     -4.51167095
  H      1.71784392      5.21509809     -6.66620378
  H     -0.18387920      1.47567539     -7.50626893
  H      0.36416607      2.74472761     -3.44712797
  H      1.45226218      4.80497878     -4.23557161
  C     -2.60938471      0.65966150     -5.29351867
  C     -3.53635631     -0.20261742     -4.70006743
  C     -4.87151983     -0.16641083     -5.06768680
  C     -5.30608091      0.74438247     -6.02142425
  C     -4.39963330      1.62200247     -6.59975183
  C     -3.06054561      1.58219718     -6.23980641
  H     -2.36593337      2.27745201     -6.69616039
  H     -6.35062753      0.77359221     -6.30802289
  H     -4.73381197      2.34101416     -7.33857909
  H     -3.20809257     -0.90190567     -3.93816706
  H      0.90604604      3.53300992     -8.29133560
  C     -0.21362677     -0.81457225     -5.83746366
  C      0.91304465     -1.51820019     -5.40500417
  C      1.48325169     -2.50022526     -6.19771733
  C      0.92949312     -2.80133323     -7.43496315
  C     -0.19952576     -2.12065626     -7.87011819
  C     -0.76982413     -1.13457172     -7.07892801
  H      1.37428424     -3.57004416     -8.05575280
  H     -0.64002680     -2.35759383     -8.83153617
  H     -1.65629748     -0.61528982     -7.42472949
  H     -5.57600513     -0.84918457     -4.60734567
  H      2.35853773     -3.03520512     -5.84751355
  H      1.34087286     -1.29752863     -4.43236754
  P     -0.57463795     -3.94519907     -0.88926536
  C     -0.71725938     -4.29245523     -2.67259885
  C     -0.09491536     -5.35724832     -3.32371278
  C     -0.26252143     -5.54090812     -4.68899285
  C     -1.06512933     -4.67620807     -5.41847253
  C     -1.68635246     -3.60885471     -4.78221034
  C     -1.49923479     -3.41065600     -3.42519869
  H     -1.20332287     -4.82762294     -6.48245305
  H      0.51818571     -6.05268508     -2.76261049
  H     -1.96724090     -2.56371472     -2.93302598
  H     -2.31112026     -2.92616514     -5.34687489
  C     -2.23444914     -4.39284284     -0.27805691
  C     -2.66677843     -3.84856647      0.93268122
  C     -3.92304504     -4.14119573      1.43735601
  C     -4.76788843     -4.99413005      0.73990412
  C     -4.34597532     -5.55417906     -0.45792768
  C     -3.09055234     -5.25588014     -0.96756835
  H     -2.77722073     -5.69348362     -1.90835798
  H     -5.75260414     -5.22296163      1.12994033
  H     -4.99881875     -6.22543669     -1.00375315
  H     -2.00864092     -3.18711897      1.48503947
  H      0.23087206     -6.37070051     -5.18174578
  C      0.49338671     -5.25577504     -0.21956977
  C      1.71943421     -4.89476066      0.34140616
  C      2.57572761     -5.85498561      0.85654210
  C      2.21207499     -7.19398107      0.82347866
  C      0.98748225     -7.56552317      0.28345679
  C      0.13066897     -6.60624358     -0.23278027
  H      2.87869614     -7.94791699      1.22527490
  H      0.69630917     -8.60931672      0.26618611
  H     -0.82865820     -6.90465292     -0.64058769
  H     -4.24116743     -3.70222624      2.37612582
  H      3.52509784     -5.55457299      1.28564441
  H      1.99686686     -3.84673639      0.38039830
  P     -4.94029898      0.50373326     -0.26632289
  C     -6.39583313      1.39192957      0.35447534
  C     -6.54428419      2.77537706      0.23539567
  C     -7.60175745      3.42437639      0.85534254
  C     -8.51847997      2.70474283      1.60930575
  C     -8.37514012      1.32910515      1.74314555
  C     -7.31819240      0.67822338      1.12813598
  H     -9.34392152      3.21407678      2.09236239
  H     -5.83093733      3.34863931     -0.34576311
  H     -7.20193111     -0.39410025      1.24619444
  H     -9.08695225      0.76275114      2.33237130
  C     -5.58122870     -0.82363334     -1.33391354
  C     -4.69553289     -1.85290090     -1.66571637
  C     -5.09419958     -2.88246930     -2.50259887
  C     -6.38912714     -2.90717278     -3.00510577
  C     -7.28016671     -1.89595756     -2.67074711
  C     -6.87969336     -0.85607337     -1.84409746
  H     -7.58089293     -0.06937747     -1.59053732
  H     -6.70399157     -3.71747265     -3.65197563
  H     -8.29277018     -1.91523038     -3.05645514
  H     -3.68946548     -1.84363167     -1.25703411
  H     -7.70793134      4.49788496      0.74899831
  C     -4.18400518      1.64218170     -1.47002974
  C     -2.85496385      2.01637101     -1.28294371
  C     -2.23065874      2.88593551     -2.16472602
  C     -2.93297731      3.40223113     -3.24438211
  C     -4.25889632      3.03800824     -3.44057024
  C     -4.87887329      2.15724989     -2.56804514
  H     -2.44792126      4.08688433     -3.93035687
  H     -4.81127416      3.43805826     -4.28286430
  H     -5.91006135      1.86767136     -2.73698957
  H     -4.39649041     -3.67211021     -2.75671935
  H     -1.19999565      3.17217522     -1.99263688
  H     -2.31257655      1.63596084     -0.42517735
  P      4.30358966     -0.80837958     -2.61824451
  C      4.66389580      0.22422316     -4.07038815
  C      5.95923853      0.38061989     -4.57285954
  C      6.18320724      1.13960765     -5.71097956
  C      5.12097420      1.74980301     -6.36369378
  C      3.83216541      1.60967291     -5.86716205
  C      3.60605641      0.85922209     -4.72479094
  H      5.29715047      2.33860595     -7.25617144
  H      6.79517806     -0.09021523     -4.06822625
  H      2.59840120      0.76378866     -4.33299540
  H      3.00091220      2.08849485     -6.37122071
  C      4.17248956     -2.49217887     -3.29611299
  C      3.44104958     -3.43337685     -2.56837082
  C      3.33843174     -4.74428331     -3.00351291
  C      3.94447141     -5.12965996     -4.19150361
  C      4.65535386     -4.19846980     -4.93697493
  C      4.77539980     -2.88966679     -4.49199633
  H      5.33757004     -2.17279006     -5.07935008
  H      3.85997117     -6.15302835     -4.53748606
  H      5.12660328     -4.49302422     -5.86737808
  H      2.94614311     -3.12937774     -1.65249249
  H      7.19217255      1.25219380     -6.09022342
  C      5.87450910     -0.82158088     -1.69898509
  C      6.13016600      0.23890823     -0.82580283
  C      7.31689637      0.29111226     -0.11291243
  C      8.25811555     -0.72012744     -0.25184796
  C      8.01240341     -1.77903064     -1.11434838
  C      6.82985693     -1.83120800     -1.83659482
  H      9.18285317     -0.68163798      0.31166317
  H      8.74420994     -2.57040345     -1.22750814
  H      6.64828621     -2.66181789     -2.50871792
  H      2.78383340     -5.46417633     -2.41299730
  H      7.50703562      1.12200696      0.55631361
  H      5.39206078      1.02577856     -0.70844269
  P      0.37530327      3.06633672      1.11433964
  C     -1.29241776      3.71319770      1.47185169
  C     -1.97888522      3.27001313      2.60621407
  C     -3.30050009      3.62615875      2.81928315
  C     -3.96418144      4.43271324      1.90492030
  C     -3.29284128      4.88698897      0.77905707
  C     -1.97109795      4.52692383      0.56068913
  H     -4.99924701      4.70609952      2.07269499
  H     -1.47571277      2.64766050      3.33722781
  H     -1.46427664      4.88494920     -0.32775394
  H     -3.79917161      5.52175440      0.06103968
  C      1.18104150      4.32473487      0.07926267
  C      2.03696953      3.88760869     -0.93464427
  C      2.71198728      4.79376046     -1.73778492
  C      2.52969452      6.15685255     -1.54596416
  C      1.67662393      6.60605387     -0.54675565
  C      1.01029260      5.70073727      0.26506163
  H      0.35107011      6.06348044      1.04541060
  H      3.05255732      6.86811284     -2.17437772
  H      1.53193192      7.66926675     -0.39456565
  H      2.17234521      2.82280267     -1.09506574
  H     -3.81439240      3.27143733      3.70486941
  C      1.22866794      3.17773184      2.72552183
  C      1.03662063      2.14395366      3.64640558
  C      1.67010464      2.15804536      4.87726209
  C      2.52168322      3.20467155      5.20597696
  C      2.73020037      4.23257639      4.29780885
  C      2.08892398      4.22242768      3.06798000
  H      3.02079445      3.21740308      6.16761435
  H      3.39730626      5.04992884      4.54585849
  H      2.26616561      5.03269594      2.37067697
  H      3.38242809      4.43399416     -2.50999842
  H      1.50013054      1.34944785      5.57898150
  H      0.39021278      1.31203243      3.39305917
