#B3LYP/6-31+G(d) OPT FREQ

246, Energy =   -372.44032446 au

0 1
 Au      1.18241858     -0.07101836     -2.57439311
 Au      2.39972709      0.05921008      2.66133126
 Au     -2.48425665      1.61060398      0.01155932
 Au      0.58182242     -1.75810398      1.80995353
 Au      0.82996592     -2.47255903     -1.12302157
 Au     -1.99346102     -0.31250200      1.79289940
 Au      2.19361073     -0.35572125     -0.02077007
 Au     -0.69678464     -0.23574450     -0.52228669
  P      2.83054007     -3.96707619     -0.73996297
  C      2.60597570     -5.72950737     -0.32864858
  C      3.40061764     -6.75650348     -0.83990342
  C      3.18475607     -8.06902691     -0.44750318
  C      2.18131908     -8.37273494      0.46223864
  C      1.37278193     -7.36076389      0.96271863
  C      1.57319202     -6.05064457      0.55879908
  H      2.02219116     -9.39820533      0.77394645
  H      4.19150305     -6.53153879     -1.54596937
  H      0.91623376     -5.26654019      0.92226879
  H      0.57603795     -7.59390008      1.65980481
  C      3.78977279     -3.34544140      0.68765059
  C      4.71193832     -2.30859885      0.51428936
  C      5.31063389     -1.70056750      1.60738229
  C      4.98117761     -2.09678403      2.89779791
  C      4.06994604     -3.12858196      3.08352288
  C      3.48149469     -3.74654710      1.99001144
  H      2.77796386     -4.55364787      2.15662098
  H      5.44621997     -1.61685074      3.75042309
  H      3.81529190     -3.45594954      4.08488880
  H      4.97200558     -1.97922176     -0.48527692
  H      3.80871428     -8.85784091     -0.85126441
  C      4.01979982     -3.91153316     -2.11536332
  C      3.54884431     -3.50073872     -3.36470712
  C      4.40489419     -3.40878786     -4.45075163
  C      5.74905706     -3.72262766     -4.30142820
  C      6.23044485     -4.13240771     -3.06492071
  C      5.37546461     -4.22853635     -1.97798234
  H      6.42105322     -3.64862738     -5.14831639
  H      7.27909910     -4.37879002     -2.94566316
  H      5.76195762     -4.54300446     -1.01518267
  H      6.03779487     -0.91340141      1.44962662
  H      4.02132408     -3.09441302     -5.41483920
  H      2.49953770     -3.25051306     -3.48194166
  P     -3.74009706      3.53433308     -0.57762282
  C     -5.05910960      3.13327042     -1.76470404
  C     -5.65658386      4.08313980     -2.59724217
  C     -6.69329408      3.71999591     -3.44247216
  C     -7.15270974      2.40927816     -3.46394708
  C     -6.56638714      1.45740212     -2.63989005
  C     -5.52465869      1.81694798     -1.79940610
  H     -7.96758159      2.13010029     -4.12132503
  H     -5.30749462      5.10940734     -2.58562724
  H     -5.06174665      1.07030207     -1.16165622
  H     -6.91990095      0.43269777     -2.65351827
  C     -2.79032112      4.86753515     -1.36576444
  C     -2.26668022      5.92718901     -0.61980085
  C     -1.46648006      6.88495310     -1.22482598
  C     -1.16553247      6.79163574     -2.57693455
  C     -1.66045477      5.72909384     -3.32203864
  C     -2.45910341      4.77034559     -2.72025387
  H     -2.83830403      3.94097010     -3.30710282
  H     -0.54605385      7.54465945     -3.04966500
  H     -1.42156976      5.64560320     -4.37619386
  H     -2.49813983      6.01059187      0.43630903
  H     -7.14786806      4.46508305     -4.08494771
  C     -4.65182117      4.34848199      0.77101213
  C     -4.78526962      3.67213629      1.98452918
  C     -5.49063581      4.23780894      3.03560072
  C     -6.07597747      5.48718236      2.88466035
  C     -5.95853052      6.16508692      1.67827743
  C     -5.25410595      5.60167888      0.62633563
  H     -6.62551171      5.93172299      3.70599269
  H     -6.41925935      7.13831480      1.55527934
  H     -5.17039713      6.13724465     -0.31262020
  H     -1.08050680      7.71067499     -0.63805396
  H     -5.58323513      3.70333603      3.97432395
  H     -4.33190321      2.69300052      2.09826197
  P      2.30012872      1.47569934      4.58962868
  C      3.21029333      3.05326235      4.65614741
  C      2.74626316      4.17462623      3.96259962
  C      3.48493003      5.34709159      3.94738193
  C      4.69953276      5.41756430      4.61577964
  C      5.17601800      4.30641301      5.29808290
  C      4.44317421      3.12918551      5.31234870
  H      5.27330863      6.33659720      4.60538681
  H      1.79748009      4.13453458      3.43879495
  H      4.82580246      2.26561337      5.84465807
  H      6.12246259      4.35464183      5.82386084
  C      2.61379044      0.68948403      6.19402654
  C      2.78334987     -0.69683986      6.22173248
  C      3.01318420     -1.35820979      7.41865520
  C      3.07816274     -0.63987194      8.60528409
  C      2.91620627      0.73930188      8.59024568
  C      2.68791227      1.40338596      7.39528259
  H      2.57690621      2.48176675      7.39161299
  H      3.26040471     -1.15438468      9.54133102
  H      2.97127506      1.30266594      9.51442961
  H      2.73573009     -1.25708957      5.29348952
  H      3.10689990      6.21039327      3.41162107
  C      0.55686971      2.01220479      4.63870241
  C     -0.05779879      2.30191037      3.41698219
  C     -1.37111475      2.74157790      3.36990950
  C     -2.10267306      2.87342895      4.54236426
  C     -1.51002004      2.56845220      5.75914889
  C     -0.18965800      2.14602924      5.80929379
  H     -3.13005047      3.21613433      4.50741784
  H     -2.07754131      2.66160766      6.67785342
  H      0.25755633      1.91306379      6.76845901
  H      3.14640212     -2.43376903      7.42369393
  H     -1.82019167      2.99025188      2.41471102
  H      0.50288256      2.18586743      2.49612668
  P      3.70227160      1.51680467     -0.28951755
  C      2.84649883      3.08361815      0.05430435
  C      3.51888813      4.29434992      0.24346019
  C      2.80827715      5.46007038      0.48749702
  C      1.42095764      5.43585715      0.55181691
  C      0.74250791      4.23726247      0.37418840
  C      1.45200661      3.07261899      0.12925758
  H      0.86888745      6.34838196      0.74338692
  H      4.60174731      4.32250920      0.20660280
  H      0.91936601      2.13825986     -0.00601407
  H     -0.34034516      4.20882949      0.42370438
  C      4.17743325      1.60572423     -2.04820549
  C      4.48158408      0.40426709     -2.69737538
  C      4.88928084      0.39815911     -4.02203930
  C      4.98099545      1.59310902     -4.72380147
  C      4.67385220      2.78969816     -4.09136706
  C      4.27878321      2.79997129     -2.76172582
  H      4.04217682      3.74201335     -2.28058354
  H      5.29192708      1.59083076     -5.76178744
  H      4.74287467      3.72459248     -4.63532166
  H      4.40696398     -0.53125528     -2.15436570
  H      3.34142575      6.39325984      0.62660501
  C      5.29779877      1.67018062      0.57131165
  C      5.30767609      2.07268053      1.90977990
  C      6.49351946      2.12109158      2.62261923
  C      7.68771516      1.75759408      2.01400100
  C      7.68866401      1.34661521      0.68838595
  C      6.50302465      1.29867717     -0.03010106
  H      8.61489736      1.79303523      2.57343353
  H      8.61697193      1.06055751      0.20787836
  H      6.51687371      0.97639429     -1.06483776
  H      5.14045088     -0.54118744     -4.50153549
  H      6.48399439      2.44284211      3.65752753
  H      4.37687646      2.35592559      2.38890907
  P     -1.05931218     -3.79137884     -2.07668354
  C     -1.22531873     -5.53454480     -1.56477454
  C     -2.14797734     -5.95828600     -0.60653133
  C     -2.19628270     -7.28901493     -0.21772141
  C     -1.32650084     -8.21393891     -0.77829851
  C     -0.39393540     -7.80045243     -1.72095091
  C     -0.33400015     -6.47028862     -2.10220783
  H     -1.37327477     -9.25467048     -0.48054751
  H     -2.84389264     -5.25082395     -0.17011316
  H      0.40388639     -6.15225854     -2.83127245
  H      0.29401776     -8.51571243     -2.15662910
  C     -0.95007776     -3.92547487     -3.89083418
  C     -0.17667127     -3.00324638     -4.59752249
  C     -0.07481189     -3.06909382     -5.97789733
  C     -0.74748583     -4.06121925     -6.67679891
  C     -1.52213477     -4.98530170     -5.98851857
  C     -1.62389789     -4.92080708     -4.60801048
  H     -2.22524102     -5.65188505     -4.07983661
  H     -0.66576984     -4.11557037     -7.75596556
  H     -2.04960898     -5.76265241     -6.52891188
  H      0.35312013     -2.22482797     -4.05769429
  H     -2.92408504     -7.60425852      0.52119561
  C     -2.73247973     -3.10479908     -1.80283500
  C     -3.07884602     -2.72598990     -0.50294718
  C     -4.32412360     -2.18682900     -0.22268839
  C     -5.24728200     -2.00781706     -1.24344295
  C     -4.91454474     -2.37247582     -2.54101107
  C     -3.66795750     -2.91547593     -2.82107610
  H     -6.22409577     -1.59158496     -1.02668765
  H     -5.63419496     -2.24502335     -3.34152829
  H     -3.42775291     -3.19714018     -3.83951979
  H      0.53582550     -2.34740286     -6.50740741
  H     -4.57387779     -1.91173057      0.79574894
  H     -2.36244818     -2.85872282      0.29848080
  P     -2.90601344     -1.40232428      3.68779893
  C     -4.69619472     -1.12495332      3.57173424
  C     -5.61451782     -2.13390370      3.27559321
  C     -6.95396990     -1.82881162      3.07973412
  C     -7.39332243     -0.51582226      3.16730251
  C     -6.48638548      0.49850874      3.44659097
  C     -5.14811063      0.19812959      3.63810028
  H     -8.43965649     -0.28066061      3.01254004
  H     -5.28514038     -3.16360420      3.19988544
  H     -4.43766841      0.99413300      3.83679594
  H     -6.82214708      1.52734640      3.50800824
  C     -2.43293806     -0.92598270      5.38224562
  C     -1.10200026     -1.14321422      5.75293363
  C     -0.67511271     -0.85964454      7.03935139
  C     -1.56321067     -0.33031125      7.96738873
  C     -2.88058538     -0.09199837      7.60281921
  C     -3.31731220     -0.39367337      6.32071268
  H     -4.35401093     -0.22225288      6.05602191
  H     -1.22707603     -0.10673152      8.97295623
  H     -3.57866044      0.31942414      8.32253242
  H     -0.40200318     -1.54827784      5.02795265
  H     -7.65582757     -2.62354833      2.85502472
  C     -2.70224603     -3.21079077      3.76375944
  C     -1.88243841     -3.87309566      2.85263255
  C     -1.72671032     -5.24896190      2.90172991
  C     -2.38941114     -5.98606896      3.87227683
  C     -3.19515646     -5.33854286      4.80021877
  C     -3.35052962     -3.96281927      4.75062429
  H     -2.27227109     -7.06267490      3.91046000
  H     -3.70450609     -5.90849469      5.56844405
  H     -3.97380695     -3.46352431      5.48422602
  H      0.35284893     -1.05522433      7.32032348
  H     -1.09009133     -5.74481282      2.17821894
  H     -1.35268729     -3.30256228      2.09605122
  P      0.62449211      1.17273382     -4.55858348
  C      1.19261434      2.90159573     -4.51315098
  C      1.77532249      3.56491358     -5.59374156
  C      2.20398336      4.87820223     -5.46145184
  C      2.06356394      5.54182867     -4.25050192
  C      1.49119526      4.88785326     -3.16652915
  C      1.05964016      3.57826684     -3.29722197
  H      2.40152940      6.56632617     -4.14876527
  H      1.89661558      3.05335671     -6.54156169
  H      0.61503030      3.06869399     -2.44809962
  H      1.37843219      5.40007613     -2.21776927
  C     -1.17945907      1.36044373     -4.73011423
  C     -2.00876042      0.37321098     -4.19364998
  C     -3.38605996      0.46910953     -4.30888950
  C     -3.95525932      1.54813201     -4.97063424
  C     -3.14266757      2.54135106     -5.50028212
  C     -1.76372716      2.45282407     -5.37687528
  H     -1.13747897      3.24076235     -5.77982842
  H     -5.03221989      1.61883122     -5.06748919
  H     -3.58296992      3.38799627     -6.01404348
  H     -1.56900171     -0.47720277     -3.68319113
  H      2.64985076      5.38431452     -6.30971675
  C      1.16512333      0.53405407     -6.17392393
  C      2.26335373     -0.32930608     -6.19221633
  C      2.73652410     -0.84709090     -7.38803610
  C      2.10939646     -0.51700358     -8.58200397
  C      1.00779980      0.32828422     -8.57434011
  C      0.53571739      0.85121511     -7.38050236
  H      2.47554884     -0.92275518     -9.51762789
  H      0.51147286      0.58203612     -9.50377513
  H     -0.33037529      1.50305703     -7.38543782
  H     -4.01673093     -0.30081699     -3.87953508
  H      3.59283904     -1.51182130     -7.38640678
  H      2.74533577     -0.59411393     -5.25695520

