#B3LYP/6-31+G(d) OPT FREQ

246, Energy =   -372.44120978 au

0 1
 Au     -0.01697969     -1.14008157     -0.52211843
 Au     -1.31409260      3.26198178     -1.52149638
 Au     -0.20129602     -1.78310435     -3.14740253
 Au      1.56176500     -0.11733478      1.41273173
 Au     -2.47945536      0.97331869     -1.12145493
 Au     -0.68272976     -3.70555403     -1.48086131
 Au     -0.37070836      1.08204197     -2.76672532
 Au     -1.07953985      0.36254377      1.45253988
  P     -1.23178257     -5.80607112     -0.51822490
  C     -0.97730045     -6.04326574      1.26479027
  C     -1.56806511     -7.10648089      1.95634292
  C     -1.34680305     -7.27243831      3.31405802
  C     -0.53331607     -6.38132917      4.00039055
  C      0.05252238     -5.32063311      3.32441104
  C     -0.17055301     -5.14712468      1.96706014
  H     -0.35767365     -6.51063031      5.06194058
  H     -2.21078080     -7.80175103      1.42859783
  H      0.28706516     -4.31359492      1.44417003
  H      0.68637141     -4.62340955      3.85760421
  C     -0.25542007     -7.11171630     -1.32100888
  C     -0.02031730     -6.98226421     -2.69383779
  C      0.71671030     -7.93557772     -3.37787800
  C      1.23987594     -9.02716695     -2.69678159
  C      1.02219850     -9.15976488     -1.33226544
  C      0.27904859     -8.21068603     -0.64649075
  H      0.11902628     -8.32447640      0.41942926
  H      1.82053503     -9.77118340     -3.22905115
  H      1.43290577    -10.00751623     -0.79631037
  H     -0.41478610     -6.12049557     -3.22278171
  H     -1.81052784     -8.10083906      3.83668522
  C     -2.95377582     -6.36258651     -0.73757891
  C     -3.93880532     -5.83760686      0.10642247
  C     -5.27114031     -6.17817230     -0.06492910
  C     -5.64209095     -7.04405040     -1.08542122
  C     -4.67405646     -7.56984083     -1.92939642
  C     -3.33910227     -7.22934861     -1.76246556
  H     -6.68362822     -7.31087236     -1.21990123
  H     -4.95672368     -8.25093181     -2.72363547
  H     -2.59215266     -7.65167192     -2.42482665
  H      0.88730191     -7.82346053     -4.44233178
  H     -6.01989573     -5.76529171      0.60160001
  H     -3.65360090     -5.16968213      0.91159671
  P      1.17329064      0.58380813     -4.50436235
  C      0.58351490     -0.66485779     -5.68261977
  C     -0.46933118     -0.33987771     -6.54414578
  C     -0.99891500     -1.29298374     -7.39998153
  C     -0.50500817     -2.59286147     -7.39025158
  C      0.52211247     -2.93454998     -6.52378146
  C      1.06612770     -1.98046369     -5.67324300
  H     -0.92199411     -3.33597542     -8.05945346
  H     -0.87214495      0.66726012     -6.54285196
  H      1.90264918     -2.24319023     -5.03795605
  H      0.91224263     -3.94558522     -6.51079521
  C      2.81105220      0.00199651     -3.97346969
  C      3.12896394     -0.04882359     -2.61694162
  C      4.38716919     -0.46339190     -2.20697366
  C      5.34282282     -0.82760562     -3.14406989
  C      5.04057399     -0.76829436     -4.49825583
  C      3.78607035     -0.35189203     -4.91238452
  H      3.55821910     -0.29678250     -5.97114817
  H      6.32390902     -1.15301221     -2.81825371
  H      5.78577102     -1.04462511     -5.23493076
  H      2.38727774      0.24033382     -1.88001981
  H     -1.79815937     -1.02049344     -8.07927647
  C      1.61055504      2.03508654     -5.51829625
  C      1.88844270      3.22157027     -4.83487123
  C      2.26908933      4.36105513     -5.52385530
  C      2.36761695      4.33303733     -6.90863336
  C      2.09606634      3.15864849     -7.59659762
  C      1.72518843      2.01232180     -6.90899635
  H      2.65622155      5.22592440     -7.45044133
  H      2.17623217      3.13064858     -8.67703669
  H      1.52585901      1.09979216     -7.45846155
  H      4.62337695     -0.50584170     -1.15089835
  H      2.48139864      5.27350052     -4.97817936
  H      1.80456431      3.24450917     -3.75343252
  P     -4.12344877     -0.78039642     -1.00032042
  C     -5.82468308     -0.31610164     -1.44231031
  C     -6.80472596     -1.27630317     -1.71633727
  C     -8.08512398     -0.88569351     -2.07344188
  C     -8.40266364      0.46300663     -2.17229836
  C     -7.43314764      1.42353060     -1.92002664
  C     -6.15115975      1.03591903     -1.55943018
  H     -9.40464151      0.76460320     -2.45377229
  H     -6.55820056     -2.33100780     -1.65859707
  H     -5.39102582      1.78653219     -1.36994137
  H     -7.67261414      2.47687511     -2.00761558
  C     -4.26121713     -1.82628156      0.48761946
  C     -3.08347969     -2.35306158      1.02543019
  C     -3.08668711     -3.04622576      2.22439760
  C     -4.28108013     -3.23537822      2.90905941
  C     -5.46098616     -2.73124617      2.38085138
  C     -5.45291156     -2.02418788      1.18701821
  H     -6.38118589     -1.61661422      0.80451369
  H     -4.28925320     -3.77261777      3.84995059
  H     -6.39669736     -2.87604555      2.90816545
  H     -2.15097976     -2.22244997      0.48999365
  H     -8.83763582     -1.63767539     -2.28053580
  C     -3.72887717     -1.92952435     -2.35890335
  C     -3.35990513     -1.35755543     -3.58031212
  C     -3.03790046     -2.15267286     -4.66951044
  C     -3.08000867     -3.53703520     -4.55555412
  C     -3.45328348     -4.11471647     -3.35146394
  C     -3.77462099     -3.31891790     -2.25785139
  H     -2.82576277     -4.16011815     -5.40479225
  H     -3.50205390     -5.19318888     -3.25989883
  H     -4.07222699     -3.78315494     -1.32535599
  H     -2.15698182     -3.43636710      2.62293509
  H     -2.76433027     -1.69057918     -5.61014840
  H     -3.33505470     -0.27810745     -3.67839919
  P     -0.42477919      5.43067315     -2.00346292
  C     -0.71065562      5.87432580     -3.74680105
  C     -0.68484109      7.19259147     -4.21031606
  C     -0.86676476      7.46581189     -5.55729986
  C     -1.07795794      6.43223508     -6.45976826
  C     -1.11565872      5.11946247     -6.00972636
  C     -0.93642835      4.84502085     -4.66371809
  H     -1.21908134      6.64963988     -7.51189569
  H     -0.52990052      8.00846331     -3.51361469
  H     -0.96861311      3.81779015     -4.31559338
  H     -1.28550059      4.30693258     -6.70705876
  C      1.39297296      5.34142451     -1.91630321
  C      1.97929217      4.20200580     -1.36165218
  C      3.35761472      4.05469669     -1.33152017
  C      4.17349642      5.05412889     -1.84209191
  C      3.60466763      6.19595899     -2.39121323
  C      2.22585049      6.33672553     -2.43693505
  H      1.79208852      7.22299071     -2.88613362
  H      5.25098421      4.94036190     -1.81622242
  H      4.23736428      6.97827386     -2.79394956
  H      1.34572274      3.41997916     -0.95631582
  H     -0.84425467      8.49268026     -5.90319834
  C     -0.88014460      6.94662841     -1.10384289
  C     -2.22872068      7.32089646     -1.11578439
  C     -2.65784422      8.43067916     -0.40652615
  C     -1.74952014      9.17676552      0.33479234
  C     -0.41111522      8.81081342      0.35848268
  C      0.02339369      7.70249270     -0.35368380
  H     -2.08586180     10.04298175      0.89210767
  H      0.30164272      9.39052337      0.93354345
  H      1.07193969      7.42887128     -0.33142415
  H      3.79248467      3.15418590     -0.91422629
  H     -3.70371862      8.71377079     -0.43047351
  H     -2.94133707      6.73594544     -1.68815280
  P      3.24281936     -1.98433206      1.73157599
  C      3.01898693     -3.47511485      0.69254150
  C      3.07107356     -4.77977434      1.18668902
  C      2.92758349     -5.86223293      0.33071732
  C      2.73684947     -5.66079481     -1.02889696
  C      2.66247278     -4.36803639     -1.53091481
  C      2.79798573     -3.28605773     -0.67429862
  H      2.64598673     -6.50795478     -1.69785050
  H      3.22936016     -4.95290499      2.24493322
  H      2.74027077     -2.27954983     -1.07329516
  H      2.51401263     -4.20038618     -2.59159663
  C      3.07608836     -2.61642866      3.43277381
  C      1.85004342     -2.44143370      4.07773838
  C      1.65870527     -2.89664673      5.37434541
  C      2.69596116     -3.52496001      6.05006370
  C      3.92122440     -3.70090140      5.42156373
  C      4.11128137     -3.25439248      4.12307829
  H      5.07312844     -3.39514843      3.64371363
  H      2.54968257     -3.87355182      7.06556061
  H      4.73466484     -4.18953208      5.94512240
  H      1.04140152     -1.93926181      3.55666316
  H      2.97090803     -6.86976737      0.72820960
  C      5.03976979     -1.68457336      1.59391290
  C      5.80654409     -2.14107623      0.51930568
  C      7.14535425     -1.79313617      0.41272761
  C      7.73839662     -0.98557338      1.37307631
  C      6.98775174     -0.53026102      2.44915382
  C      5.64948637     -0.87100176      2.55505075
  H      8.78390614     -0.71474105      1.28592239
  H      7.44388395      0.09750149      3.20601331
  H      5.06686041     -0.50811782      3.39490929
  H      0.70010999     -2.75328122      5.85970840
  H      7.72772627     -2.15947020     -0.42501392
  H      5.36151874     -2.78467679     -0.23091464
  P     -2.66545156      1.35686593      2.92097381
  C     -4.44522764      0.95759498      2.94325559
  C     -5.06291659      0.25796219      3.98047602
  C     -6.42632289      0.00410928      3.94081379
  C     -7.18901909      0.43993935      2.86651320
  C     -6.58108036      1.12399980      1.82118711
  C     -5.21926908      1.37442515      1.85566640
  H     -8.25519134      0.24850651      2.84208060
  H     -4.48088018     -0.08088691      4.82953119
  H     -4.74777007      1.91478389      1.04044295
  H     -7.17011177      1.46606517      0.97806863
  C     -2.69417382      3.16143236      2.72017534
  C     -1.71379084      3.76140102      1.92915290
  C     -1.72418526      5.12839295      1.70751701
  C     -2.71030489      5.92011119      2.27902855
  C     -3.68557142      5.33726992      3.07659139
  C     -3.68199367      3.96815838      3.29381640
  H     -4.45593076      3.51885540      3.90558642
  H     -2.71806289      6.98907775      2.10022768
  H     -4.45679993      5.95043619      3.52794272
  H     -0.93164519      3.15034963      1.49146142
  H     -6.89479300     -0.53024260      4.75915313
  C     -2.12836728      1.05294414      4.63033433
  C     -1.85457921     -0.27276652      4.98436340
  C     -1.44734020     -0.58827886      6.27059870
  C     -1.27929300      0.41893329      7.21289266
  C     -1.52038018      1.74018412      6.86264305
  C     -1.94767861      2.05738399      5.58141743
  H     -0.96113176      0.17289480      8.21906311
  H     -1.38310323      2.52938595      7.59266220
  H     -2.14535455      3.09096175      5.32136104
  H     -0.95414623      5.57511684      1.09123961
  H     -1.26101846     -1.62200865      6.53888060
  H     -1.96926414     -1.05807795      4.24362849
  P      2.54604414      1.77390984      2.72952867
  C      1.75358926      3.38549479      3.10735640
  C      0.97526332      3.57743858      4.25118228
  C      0.41110273      4.81392337      4.52496118
  C      0.61157462      5.88095536      3.66087125
  C      1.35916812      5.69552483      2.50534666
  C      1.91294942      4.45705129      2.22274975
  H      0.18445833      6.85157891      3.88335107
  H      0.82148177      2.76188334      4.94845157
  H      2.49474111      4.32888132      1.31665243
  H      1.52026035      6.52212486      1.82304111
  C      4.13529660      2.31552039      2.02009053
  C      4.63520493      1.62704817      0.91491269
  C      5.84776397      1.97968571      0.34038145
  C      6.57664281      3.03880867      0.86227508
  C      6.08433123      3.74469118      1.95260407
  C      4.87430052      3.39025759      2.52785711
  H      4.49492853      3.95735293      3.37022210
  H      7.52482204      3.31720800      0.41768779
  H      6.64700683      4.57736096      2.35839505
  H      4.06147224      0.80247739      0.50803084
  H     -0.17783359      4.94625594      5.42534454
  C      2.97198883      1.18264145      4.40349702
  C      1.96181246      0.55033571      5.13499878
  C      2.20146283      0.09054475      6.42031036
  C      3.46126951      0.22644350      6.98610816
  C      4.47837930      0.83028584      6.26082272
  C      4.23613456      1.31090552      4.98238505
  H      3.65020266     -0.14154526      7.98757164
  H      5.46694263      0.93477433      6.69265096
  H      5.03887912      1.79348702      4.43756185
  H      6.22226806      1.42581567     -0.51295918
  H      1.40218017     -0.38394110      6.97770385
  H      0.98284855      0.40905768      4.68792077

