246
Energy =   -372.42846276 au
 Au      0.76870573     -2.60214558      0.09358941
 Au      0.50844874      5.42868441      0.77899037
 Au      0.11640360      0.07151816      0.04543510
 Au      0.93485638      1.13710222      2.50946807
 Au     -1.65027541      4.74698839     -0.44660653
 Au     -0.95780216     -1.68047200     -1.60994307
 Au      2.51949802      1.51167378      0.40936297
 Au      0.02003630      2.79209270      0.43450032
  P      4.09918782      1.70386436     -1.35494159
  C      4.10862617      3.34479569     -2.13550763
  C      5.07002105      3.71739507     -3.08101980
  C      5.02228774      4.97008618     -3.67235303
  C      4.02214439      5.87042139     -3.32868645
  C      3.07029834      5.51690017     -2.38245535
  C      3.11705845      4.26365027     -1.79137457
  H      3.98876735      6.84877398     -3.79317742
  H      5.86091684      3.02529235     -3.34707466
  H      2.37890062      3.99307807     -1.04455398
  H      2.29033917      6.21512317     -2.10005020
  C      3.57242874      0.56279727     -2.67122554
  C      3.24721857     -0.74611821     -2.30144877
  C      2.81135648     -1.65946543     -3.24733209
  C      2.68494427     -1.27811930     -4.57663340
  C      2.98542002      0.02331225     -4.95094808
  C      3.42511289      0.93878341     -4.00676505
  H      3.65050814      1.95344250     -4.31353994
  H      2.34801425     -1.99222716     -5.31858897
  H      2.87537043      0.33081555     -5.98438540
  H      3.33500507     -1.04840577     -1.26273650
  H      5.77172748      5.24552382     -4.40515860
  C      5.86977753      1.36038582     -1.11280478
  C      6.63554497      2.32099075     -0.44302789
  C      7.98525844      2.11030652     -0.21511785
  C      8.58710514      0.93252819     -0.64046738
  C      7.83136316     -0.03354243     -1.28959898
  C      6.47951669      0.17369023     -1.52211805
  H      9.64425959      0.77011610     -0.46720778
  H      8.29788482     -0.95183815     -1.62715236
  H      5.90063625     -0.58701828     -2.03377411
  H      2.56963988     -2.67153471     -2.94409283
  H      8.56954714      2.86820958      0.29361607
  H      6.16904567      3.24208754     -0.10884941
  P     -1.68819662     -0.48393758     -3.62685255
  C     -0.70319414      0.94680369     -4.20719971
  C     -0.32564944      1.13331660     -5.53887796
  C      0.45672106      2.21950692     -5.90460773
  C      0.87925754      3.13311585     -4.94810652
  C      0.51040343      2.95680294     -3.62081533
  C     -0.27115330      1.87257149     -3.25726464
  H      1.49661069      3.97707319     -5.23285990
  H     -0.63815552      0.42239369     -6.29493034
  H     -0.54884021      1.74046482     -2.21660474
  H      0.83860986      3.66051664     -2.86503610
  C     -3.41673642      0.05937566     -3.82675399
  C     -4.36448831     -0.47508352     -2.95137339
  C     -5.71223678     -0.19141473     -3.10744794
  C     -6.12998250      0.64357089     -4.13419488
  C     -5.19364225      1.20235863     -4.99312180
  C     -3.84488068      0.91948653     -4.84072693
  H     -3.12143755      1.37279357     -5.50942690
  H     -7.18345269      0.86283675     -4.26212568
  H     -5.51561341      1.86062194     -5.79139595
  H     -4.03657222     -1.11382268     -2.13781069
  H      0.74143511      2.34939787     -6.94225544
  C     -1.46478870     -1.67967274     -4.98513469
  C     -0.42466864     -2.60157172     -4.83970551
  C     -0.16787765     -3.54894807     -5.81674902
  C     -0.95753385     -3.59484412     -6.95820485
  C     -2.00365822     -2.69567945     -7.10937686
  C     -2.25857160     -1.74491030     -6.13178661
  H     -0.76441018     -4.33815361     -7.72255567
  H     -2.63093949     -2.73657874     -7.99228789
  H     -3.08737660     -1.05811241     -6.25937078
  H     -6.43619403     -0.62316567     -2.42626512
  H      0.64150302     -4.25743427     -5.68278083
  H      0.18153042     -2.57374844     -3.94063521
  P      2.86554260      2.33449734      3.71513289
  C      2.82362311      4.05728459      3.09593889
  C      2.01051811      5.04205026      3.66058026
  C      1.87918371      6.28877690      3.06421671
  C      2.55784579      6.57789090      1.87781344
  C      3.39049904      5.60751627      1.31708491
  C      3.50979387      4.36470895      1.91517016
  H      2.50762127      7.56927505      1.44772906
  H      1.48220775      4.85001255      4.58576349
  H      4.15956483      3.62289139      1.46435129
  H      3.95376909      5.83038950      0.41922922
  C      4.59420627      1.87384672      3.34859462
  C      4.87137512      0.68175794      2.67826990
  C      6.17762006      0.31726046      2.39043853
  C      7.22825772      1.13869473      2.77206812
  C      6.96676299      2.33515835      3.42705767
  C      5.66179775      2.70349597      3.71222155
  H      5.46586583      3.64495640      4.21294020
  H      8.24948755      0.85110028      2.55215794
  H      7.78333997      2.98624074      3.71638746
  H      4.05710251      0.02863136      2.38540813
  H      1.27131664      7.04966573      3.53730354
  C      2.80208163      2.50343320      5.53185416
  C      1.59749918      2.90922359      6.11625451
  C      1.50442109      3.08924231      7.48687988
  C      2.59433129      2.81632435      8.30186351
  C      3.77548086      2.35517255      7.73851614
  C      3.88273333      2.20255863      6.36455547
  H      2.51821581      2.95128437      9.37419256
  H      4.62417056      2.11900016      8.36982229
  H      4.81529093      1.84863627      5.94138754
  H      6.37454161     -0.60946120      1.86435821
  H      0.57233701      3.43232625      7.92007319
  H      0.72298155      3.07279966      5.49514360
  P     -3.77947130      4.50150338     -1.43437132
  C     -4.97860451      5.80111549     -1.02259032
  C     -5.09517172      6.93283032     -1.83653383
  C     -5.93645959      7.97383445     -1.47722684
  C     -6.66328239      7.90931677     -0.29623311
  C     -6.54107339      6.79986008      0.52918319
  C     -5.70009241      5.75735741      0.17385019
  H     -7.32050126      8.72426128     -0.01705819
  H     -4.52824505      6.99564570     -2.75865816
  H     -5.60700238      4.89718082      0.82694682
  H     -7.10085105      6.74506403      1.45572244
  C     -4.54315262      2.94388806     -0.87558419
  C     -3.70204828      1.93273241     -0.40827965
  C     -4.21752260      0.74423083      0.07947437
  C     -5.59125600      0.54441737      0.10540937
  C     -6.43995959      1.53359388     -0.37449030
  C     -5.92283151      2.72298142     -0.86536985
  H     -6.59657670      3.48826681     -1.23313257
  H     -5.99775420     -0.38136795      0.49578272
  H     -7.51276056      1.38043523     -0.36174280
  H     -2.62838243      2.08490668     -0.41610919
  H     -6.02259820      8.84012956     -2.12276883
  C     -3.83517505      4.42241554     -3.25108491
  C     -2.63796271      4.31833904     -3.95915232
  C     -2.63588221      4.28197757     -5.34518312
  C     -3.83294627      4.36685225     -6.04218557
  C     -5.03213319      4.47391777     -5.34773748
  C     -5.03723240      4.49278518     -3.96207119
  H     -3.83315253      4.35444443     -7.12569410
  H     -5.96826367      4.54965975     -5.88858095
  H     -5.97743693      4.57446124     -3.42839830
  H     -3.54407175     -0.01806530      0.45339527
  H     -1.69642034      4.19952738     -5.87996998
  H     -1.70082014      4.27252623     -3.41528947
  P     -0.87996349      0.41284005      4.04739749
  C     -2.32809009      1.41940129      3.58304493
  C     -3.62637009      0.91681472      3.48861384
  C     -4.67823022      1.74934013      3.13586270
  C     -4.44877715      3.09056769      2.86660298
  C     -3.15904263      3.60002501      2.93836238
  C     -2.10857229      2.76991779      3.29462103
  H     -5.27579863      3.73808950      2.60128001
  H     -3.82051247     -0.12969154      3.69391795
  H     -1.10280647      3.17193367      3.36079102
  H     -2.97159363      4.64598937      2.72301232
  C     -0.79713503      0.62169705      5.86153827
  C      0.06141531     -0.22176349      6.57545361
  C      0.14959444     -0.13545002      7.95480982
  C     -0.61998778      0.79311118      8.64392314
  C     -1.46951013      1.64007953      7.94524578
  C     -1.55533094      1.56130046      6.56242709
  H     -2.22463622      2.22610195      6.02896903
  H     -0.55790814      0.85559254      9.72383520
  H     -2.07548445      2.36340860      8.47836644
  H      0.64950487     -0.96254296      6.04399682
  H     -5.68230332      1.34649884      3.07017446
  C     -1.50129367     -1.30356116      3.94703459
  C     -1.15960733     -2.08704776      2.84806799
  C     -1.62224155     -3.38628284      2.71655293
  C     -2.43766604     -3.93104939      3.69800706
  C     -2.78176160     -3.16696144      4.80567203
  C     -2.32043147     -1.86596527      4.93290432
  H     -2.80265127     -4.94674847      3.60122319
  H     -3.41589887     -3.58682496      5.57781590
  H     -2.59393557     -1.28468273      5.80579495
  H      0.81583681     -0.79904503      8.49380455
  H     -1.34981895     -3.96611976      1.84168437
  H     -0.52083506     -1.66952338      2.08089299
  P     -2.30723432     -3.81763141     -1.91651453
  C     -3.74198138     -3.74620618     -0.79053800
  C     -4.88301078     -4.54078560     -0.93707728
  C     -5.92795319     -4.44529508     -0.03078747
  C     -5.84965996     -3.56596909      1.04097272
  C     -4.72151436     -2.77269976      1.19982646
  C     -3.68306366     -2.85807024      0.28557550
  H     -6.66554334     -3.49925339      1.75103650
  H     -4.95496467     -5.23530534     -1.76604194
  H     -2.80607269     -2.23225605      0.40880203
  H     -4.64534045     -2.09111436      2.03999021
  C     -1.37614488     -5.26884520     -1.31004754
  C     -0.06727633     -5.43379057     -1.77628300
  C      0.68811315     -6.53016462     -1.39160454
  C      0.15272988     -7.46877081     -0.51986337
  C     -1.13171566     -7.29756591     -0.02413077
  C     -1.89476871     -6.20838656     -0.41871164
  H     -2.90142349     -6.09301157     -0.03379376
  H      0.74038135     -8.32877404     -0.22148724
  H     -1.54676874     -8.02032948      0.66888795
  H      0.35524400     -4.69940040     -2.45452048
  H     -6.80695260     -5.06619776     -0.15925992
  C     -3.03653362     -4.44128887     -3.47451814
  C     -4.15843189     -3.79568736     -4.00615833
  C     -4.69898851     -4.19609366     -5.21704740
  C     -4.12315890     -5.24253168     -5.92519775
  C     -3.00242836     -5.88241103     -5.41518182
  C     -2.45893777     -5.48342267     -4.20346747
  H     -4.54585025     -5.55626035     -6.87224321
  H     -2.54538204     -6.69826265     -5.96321765
  H     -1.58252873     -5.99342240     -3.82030383
  H      1.69469112     -6.65474622     -1.77441575
  H     -5.57240946     -3.68732204     -5.60861496
  H     -4.61717794     -2.97717374     -3.46309848
  P      2.48888976     -3.74913287      1.28478587
  C      4.00660358     -3.68107834      0.28532776
  C      5.20234867     -3.11566566      0.72837590
  C      6.29984459     -3.03952364     -0.11656239
  C      6.21876416     -3.52168179     -1.41543007
  C      5.03223887     -4.08281328     -1.87028699
  C      3.93399161     -4.15543989     -1.02908889
  H      7.07889598     -3.46394733     -2.07200702
  H      5.28035487     -2.73933312      1.74172755
  H      3.00578320     -4.58760052     -1.38773785
  H      4.96200934     -4.46217816     -2.88313240
  C      2.27578094     -5.51562314      1.68108645
  C      1.19117385     -5.85559946      2.49636513
  C      0.97020779     -7.17234264      2.86345185
  C      1.82732021     -8.17086798      2.41726095
  C      2.90237350     -7.84493222      1.60199848
  C      3.12755493     -6.52612921      1.23355284
  H      3.97320303     -6.28401414      0.60051704
  H      1.65673938     -9.20132537      2.70547527
  H      3.57454995     -8.62006331      1.25282170
  H      0.52394014     -5.07668034      2.85106948
  H      7.22390128     -2.60306718      0.24511572
  C      3.00067677     -3.08774797      2.90619525
  C      2.52765081     -1.84772737      3.32942882
  C      2.92506711     -1.31191972      4.54522828
  C      3.79567790     -2.01574361      5.36401354
  C      4.26267888     -3.26048408      4.96221674
  C      3.87063146     -3.79333610      3.74459685
  H      4.10699771     -1.59578560      6.31332774
  H      4.93844631     -3.81838480      5.59984852
  H      4.23936660     -4.76629748      3.43970559
  H      0.12824173     -7.42043436      3.49938286
  H      2.56072247     -0.33640741      4.84737715
  H      1.83956082     -1.29684529      2.69729993
