#B3LYP/6-31+G(d) OPT FREQ

246, Energy =   -372.45094051 au

0 1
 Au     -1.18423343     -0.79161707      0.09887501
 Au     -2.20748121     -1.72432271      2.37120458
 Au      3.34677733      1.42525944      0.30339876
 Au      1.60112255      0.92376632     -1.65002502
 Au      1.87633894     -0.76421413      0.36864999
 Au     -0.13819215     -0.11884982      2.46745476
 Au     -1.38117615      1.19617391     -1.73755211
 Au     -1.91012185     -1.26963814     -2.44210276
  P      1.43049576      1.52032243     -3.94318733
  C      0.54141151      3.02876258     -4.42221013
  C      1.18967910      4.26707857     -4.38887848
  C      0.50316401      5.42955253     -4.70096905
  C     -0.84563186      5.37839695     -5.02685860
  C     -1.50877823      4.15904418     -5.02726517
  C     -0.82306442      2.99363211     -4.72154967
  H     -1.38036949      6.28784882     -5.27365293
  H      2.23926700      4.31907579     -4.12068502
  H     -1.34689709      2.04432394     -4.72683065
  H     -2.56414800      4.11386016     -5.27001949
  C      0.70641135      0.19266891     -4.95763102
  C      0.66292914     -1.09779119     -4.42360432
  C      0.17886839     -2.15882064     -5.17438514
  C     -0.26866785     -1.94275428     -6.47061535
  C     -0.22919637     -0.66510679     -7.01205891
  C      0.25915057      0.39601469     -6.26527968
  H      0.29720539      1.38695101     -6.70316152
  H     -0.64173962     -2.76976457     -7.06316720
  H     -0.57670095     -0.49345627     -8.02415218
  H      1.03309394     -1.27344111     -3.41979355
  H      1.02315439      6.38033186     -4.68460578
  C      3.08526008      1.69696159     -4.68359250
  C      4.16131103      1.06993959     -4.05084752
  C      5.44057003      1.15377995     -4.57834768
  C      5.66200443      1.86896200     -5.74734494
  C      4.59830869      2.48674031     -6.39175594
  C      3.31704969      2.39863309     -5.86955756
  H      6.66198917      1.94217299     -6.15816133
  H      4.76569045      3.03928685     -7.30893873
  H      2.49374131      2.87975373     -6.38511460
  H      0.16159097     -3.15433758     -4.74581361
  H      6.26446866      0.66298937     -4.07304107
  H      3.98990156      0.51003936     -3.13757811
  P     -3.46233121     -2.49212855     -3.82276701
  C     -3.71439533     -1.68556563     -5.43258013
  C     -4.29199219     -2.31054506     -6.54105782
  C     -4.45726342     -1.61621228     -7.73010880
  C     -4.05570438     -0.29116011     -7.83026330
  C     -3.48618969      0.34275201     -6.73372769
  C     -3.31524435     -0.35155677     -5.54757592
  H     -4.18510758      0.24717233     -8.76174624
  H     -4.60983367     -3.34468764     -6.47540407
  H     -2.86093897      0.14192140     -4.69402761
  H     -3.16954362      1.37742164     -6.80366817
  C     -5.05794953     -2.26135720     -2.97390627
  C     -5.05128063     -2.22027313     -1.57756609
  C     -6.22695495     -2.04225624     -0.86778299
  C     -7.43026394     -1.89804266     -1.54426542
  C     -7.45014233     -1.93332170     -2.93207910
  C     -6.27397267     -2.11392658     -3.64397875
  H     -6.30055024     -2.13609407     -4.72759856
  H     -8.34999779     -1.75498628     -0.98882519
  H     -8.38705168     -1.81827006     -3.46476581
  H     -4.11138124     -2.32629652     -1.04546339
  H     -4.90383538     -2.11370947     -8.58315674
  C     -3.44802953     -4.28072864     -4.17843800
  C     -2.65214912     -4.78215817     -5.21315556
  C     -2.56240072     -6.14767354     -5.43731224
  C     -3.25317058     -7.03467720     -4.62210778
  C     -4.03606665     -6.54953536     -3.58364167
  C     -4.13162197     -5.18446191     -3.35949217
  H     -3.18161796     -8.10154712     -4.79727141
  H     -4.57959913     -7.23653357     -2.94517972
  H     -4.75252359     -4.81698820     -2.55011733
  H     -6.20058658     -2.01020067      0.21445158
  H     -1.95101145     -6.51875018     -6.25168114
  H     -2.10825416     -4.09701109     -5.85339857
  P     -3.88977948     -3.12398292      3.25623022
  C     -3.89405766     -3.28054899      5.06647826
  C     -4.92282704     -3.91489410      5.76956646
  C     -4.87199309     -4.00688209      7.15150567
  C     -3.80104672     -3.46446340      7.85008300
  C     -2.78276156     -2.81858301      7.16293204
  C     -2.83251298     -2.72283738      5.78119364
  H     -3.76431384     -3.53899070      8.93054286
  H     -5.76916018     -4.32859136      5.23253712
  H     -2.04171248     -2.20922324      5.24408592
  H     -1.94824298     -2.38436399      7.70195807
  C     -3.76465883     -4.81554385      2.60012491
  C     -3.63902201     -4.94243499      1.21249221
  C     -3.48762592     -6.18804584      0.62715006
  C     -3.44849157     -7.32765418      1.42064189
  C     -3.56423418     -7.21358013      2.79881032
  C     -3.71928808     -5.96614685      3.38771375
  H     -3.80379648     -5.88921951      4.46557507
  H     -3.32545020     -8.30277153      0.96434847
  H     -3.53423830     -8.09975969      3.42205635
  H     -3.66293348     -4.05209682      0.59172396
  H     -5.67386724     -4.50237230      7.68636494
  C     -5.60117048     -2.63680882      2.87456130
  C     -5.89996641     -1.27179986      2.84406468
  C     -7.19083520     -0.83834240      2.58646866
  C     -8.19941867     -1.76406244      2.35020667
  C     -7.91143300     -3.12208000      2.36965878
  C     -6.62114626     -3.55911549      2.62973732
  H     -9.20889335     -1.42616710      2.14752266
  H     -8.69518191     -3.84679286      2.18201246
  H     -6.40353851     -4.62101585      2.63734767
  H     -3.39644186     -6.27094315     -0.45024531
  H     -7.40976470      0.22304430      2.56653686
  H     -5.11034622     -0.54843658      3.02234820
  P      1.31389192      1.02285742      3.96978064
  C      3.12461954      0.76938159      3.99920662
  C      3.96132568      1.58656662      4.76544135
  C      5.32942077      1.36719934      4.78749640
  C      5.88928005      0.34031269      4.03857561
  C      5.07070051     -0.47695224      3.27293806
  C      3.70057589     -0.26290958      3.25849924
  H      6.96043161      0.17735559      4.05404248
  H      3.53990690      2.39992707      5.34549848
  H      3.06832144     -0.91680011      2.66995995
  H      5.49271531     -1.28911344      2.69171611
  C      0.77345254      0.57094002      5.64287379
  C     -0.53790985      0.89463290      6.00899899
  C     -1.04651746      0.49684301      7.23385997
  C     -0.25957759     -0.24857659      8.10385849
  C      1.03370334     -0.59685191      7.73990705
  C      1.54902360     -0.19281194      6.51649996
  H      2.56155666     -0.46682618      6.24326738
  H     -0.65449006     -0.55496730      9.06529772
  H      1.64830598     -1.18365268      8.41266546
  H     -1.15697655      1.46687166      5.32542387
  H      5.96405792      2.00697849      5.38957981
  C      1.18385300      2.83921470      3.92040128
  C      1.18913497      3.45234075      2.66566101
  C      1.14662945      4.83337665      2.55217888
  C      1.07942344      5.62183953      3.69410095
  C      1.05502896      5.02223565      4.94611062
  C      1.10965491      3.64101269      5.06130486
  H      1.04220463      6.70111186      3.60590831
  H      0.99657346      5.63285047      5.83950843
  H      1.09064317      3.18335462      6.04353091
  H     -2.05962506      0.76549796      7.51000220
  H      1.15930137      5.29474653      1.57159205
  H      1.22889105      2.83769894      1.77133953
  P     -1.87856740      3.44350234     -1.11887406
  C     -3.42897677      4.09381649     -1.80813036
  C     -4.08895664      5.20432597     -1.27270824
  C     -5.27501776      5.65004504     -1.83445089
  C     -5.82297543      4.99137551     -2.92755604
  C     -5.18734377      3.87515299     -3.45370663
  C     -4.00007640      3.42838315     -2.89499855
  H     -6.75084564      5.34306693     -3.36302194
  H     -3.67940850      5.71165552     -0.40622156
  H     -3.50907417      2.54852002     -3.29747579
  H     -5.61761952      3.34832813     -4.29766663
  C     -0.63099704      4.75821510     -1.29977476
  C      0.68146107      4.42215396     -0.95799878
  C      1.70052112      5.35484379     -1.04493536
  C      1.42527890      6.64211693     -1.48889366
  C      0.12965826      6.98341345     -1.84978066
  C     -0.89289888      6.04897411     -1.75970930
  H     -1.89835317      6.32692721     -2.05317869
  H      2.22326840      7.37206327     -1.55904917
  H     -0.08980594      7.98364342     -2.20466704
  H      0.90216647      3.41500343     -0.61745014
  H     -5.77668093      6.51365475     -1.41352699
  C     -2.20628690      3.45166421      0.67727670
  C     -2.79833595      2.31786770      1.23876736
  C     -3.04840287      2.24472792      2.59932010
  C     -2.72026617      3.31317354      3.42361580
  C     -2.15196405      4.45402618      2.87543661
  C     -1.89353626      4.52423378      1.51401327
  H     -2.91279411      3.25846284      4.48869505
  H     -1.89923268      5.29439570      3.51172106
  H     -1.43925465      5.41771774      1.10159399
  H      2.70932207      5.07491352     -0.76794305
  H     -3.50323077      1.35233496      3.01519891
  H     -3.06561787      1.48412186      0.59973352
  P      5.23168172      2.84608735      0.54497714
  C      5.18129830      4.20584471     -0.66711378
  C      5.32461860      5.55536428     -0.34155155
  C      5.24720821      6.52668141     -1.33036308
  C      5.02917371      6.16581682     -2.65252292
  C      4.88484216      4.82498136     -2.98780412
  C      4.95302183      3.85505418     -2.00215769
  H      4.97325202      6.92672508     -3.42199371
  H      5.50019479      5.84990361      0.68653067
  H      4.83379025      2.80922514     -2.26558193
  H      4.72220738      4.53462693     -4.01984685
  C      6.74180241      1.96025712      0.06216193
  C      6.75652348      0.56597000      0.12647349
  C      7.88576444     -0.14591111     -0.24571955
  C      9.01494797      0.52665591     -0.69166968
  C      9.01066776      1.91348836     -0.76537215
  C      7.88346783      2.62802555     -0.39270520
  H      7.88303327      3.71016355     -0.46065698
  H      9.89709946     -0.02984465     -0.98551011
  H      9.88943010      2.44159792     -1.11667582
  H      5.87137624      0.04019170      0.46968934
  H      5.36352142      7.57088570     -1.06427166
  C      5.62678938      3.65437001      2.12533627
  C      4.59946141      4.35486901      2.76468978
  C      4.81709183      4.97401923      3.98438894
  C      6.06640687      4.89750436      4.58684810
  C      7.09178542      4.19816331      3.96442704
  C      6.87572125      3.57593472      2.74321315
  H      6.23964492      5.38061304      5.54114436
  H      8.06787174      4.13586872      4.43130361
  H      7.68274922      3.02915850      2.26952532
  H      7.88328198     -1.22872119     -0.19130646
  H      4.00929453      5.51453472      4.46497019
  H      3.62266501      4.40985251      2.29685173
  P      1.76822661     -3.09110179      0.96385759
  C      3.42334097     -3.82765020      1.13819411
  C      3.63319323     -5.06326790      1.75650015
  C      4.91456763     -5.57587063      1.88142734
  C      6.00295291     -4.86617126      1.39184336
  C      5.80596480     -3.63906959      0.77391769
  C      4.52600817     -3.12143269      0.65150445
  H      7.00404991     -5.26821198      1.49345012
  H      2.79029020     -5.62446495      2.14370605
  H      4.37409221     -2.15968869      0.17283218
  H      6.65168531     -3.08189276      0.38728953
  C      1.02311501     -3.97438287     -0.43976163
  C     -0.36773780     -4.02443079     -0.57420687
  C     -0.94827074     -4.57033854     -1.70733146
  C     -0.14949267     -5.06672016     -2.72980309
  C      1.23215060     -5.00972828     -2.61383041
  C      1.81541559     -4.46370903     -1.48013113
  H      2.89577205     -4.42193356     -1.39927624
  H     -0.60474602     -5.49987332     -3.61252337
  H      1.86042526     -5.39420511     -3.40887444
  H     -1.00053620     -3.64518648      0.22015799
  H      5.06391478     -6.53425896      2.36492605
  C      0.89280741     -3.72612867      2.43533336
  C      0.99530189     -3.00164755      3.62653019
  C      0.40124311     -3.45683028      4.79285669
  C     -0.30951171     -4.64970822      4.78766122
  C     -0.41606316     -5.38117042      3.61329447
  C      0.17883924     -4.92726493      2.44550742
  H     -0.77617405     -5.00871288      5.69731903
  H     -0.96331909     -6.31655716      3.60422732
  H      0.09063777     -5.51591521      1.53997673
  H     -2.02789665     -4.61692748     -1.78742942
  H      0.50245595     -2.88146014      5.70627764
  H      1.56256257     -2.07868281      3.64558972

