#B3LYP/6-31+G(d) OPT FREQ

246, Energy =   -372.45167750 au

0 1
 Au     -0.61305205     -1.58446840     -2.27575886
 Au     -0.90391620      2.69461293     -0.78187478
 Au      0.67190008      1.95447414      1.46593434
 Au     -2.10415685      1.31775401      1.13676069
 Au      2.76119626      0.11236019      0.57654336
 Au     -0.08250692      0.08192502     -0.33773045
 Au      1.20754786     -0.68083984      2.47502498
 Au      0.95024771     -2.27685463     -0.13617352
  P     -4.19973642      0.34404799      1.75263581
  C     -4.53514445     -0.99808446      0.56232955
  C     -5.21806133     -2.17243414      0.88606909
  C     -5.41921848     -3.15947827     -0.06811399
  C     -4.94779369     -2.98854013     -1.36173762
  C     -4.27646131     -1.82089348     -1.69907423
  C     -4.06972371     -0.83717122     -0.74624881
  H     -5.10643327     -3.75976716     -2.10623304
  H     -5.59747948     -2.32175209      1.88984357
  H     -3.54515296      0.07240359     -1.01890144
  H     -3.91555723     -1.67636375     -2.71070900
  C     -5.51309974      1.55082090      1.40438898
  C     -5.19112154      2.90955413      1.41029931
  C     -6.15428837      3.86518833      1.12641063
  C     -7.45226286      3.47325957      0.82773168
  C     -7.78359268      2.12432114      0.81640079
  C     -6.82328134      1.16728869      1.10261169
  H     -7.08657323      0.11541061      1.08785188
  H     -8.20574857      4.21898112      0.60320953
  H     -8.79603306      1.81634146      0.58251373
  H     -4.17583590      3.21758445      1.64028375
  H     -5.95616015     -4.06183425      0.20077940
  C     -4.64618899     -0.40554427      3.35069932
  C     -3.96207641     -1.55836177      3.75135608
  C     -4.28545187     -2.19384396      4.93852622
  C     -5.28269157     -1.67460685      5.75464884
  C     -5.94362463     -0.51216292      5.38294525
  C     -5.62864669      0.12189829      4.18989047
  H     -5.54031070     -2.17410662      6.68103084
  H     -6.71522649     -0.09817647      6.02152377
  H     -6.15791154      1.02355027      3.90406600
  H     -5.89090096      4.91673229      1.14064915
  H     -3.75748723     -3.09609644      5.22596302
  H     -3.17967423     -1.96281511      3.11775332
  P      4.53957861      0.58912553     -0.94870755
  C      4.48562937      2.08368137     -1.99068622
  C      5.55252155      2.98113650     -2.07645314
  C      5.45383243      4.12172392     -2.85984458
  C      4.29186740      4.37810624     -3.57284311
  C      3.22605491      3.49095835     -3.49686063
  C      3.31445169      2.35825034     -2.70319386
  H      4.21368077      5.26674499     -4.18814011
  H      6.46910140      2.78343281     -1.53310905
  H      2.47157600      1.67632680     -2.63892282
  H      2.32256460      3.68596759     -4.06141319
  C      4.85223680     -0.77156109     -2.11554311
  C      4.80719650     -2.07153700     -1.60240904
  C      5.07804051     -3.16027563     -2.41310185
  C      5.38126824     -2.96798647     -3.75505858
  C      5.40563815     -1.68331924     -4.28096534
  C      5.14381218     -0.58977660     -3.46799642
  H      5.17374683      0.41011697     -3.88533384
  H      5.60120673     -3.82000978     -4.38767608
  H      5.64311192     -1.52857429     -5.32716230
  H      4.56766143     -2.22381716     -0.55445395
  H      6.29059313      4.80820070     -2.91581454
  C      6.11353969      0.73569420     -0.05088692
  C      6.08480600      1.27762308      1.23684150
  C      7.25167575      1.41791511      1.97046724
  C      8.46373728      1.00991685      1.42971565
  C      8.50400883      0.46327428      0.15411428
  C      7.33879505      0.32659449     -0.58436688
  H      9.37640951      1.11458701      2.00446077
  H      9.44820171      0.14094786     -0.26929116
  H      7.37808335     -0.10349769     -1.57876651
  H      5.05812802     -4.16092128     -1.99765321
  H      7.21430663      1.84156493      2.96750780
  H      5.13641717      1.58847141      1.66335246
  P      1.07590878      4.05754684      2.56884083
  C     -0.43523453      5.02108665      2.26310271
  C     -1.47869550      5.07707939      3.18833447
  C     -2.69800608      5.64276935      2.84347078
  C     -2.89662556      6.15543860      1.56877574
  C     -1.86539784      6.10888867      0.63900447
  C     -0.64869859      5.54131151      0.98162780
  H     -3.85015284      6.59553881      1.30118698
  H     -1.33401614      4.68085757      4.18704650
  H      0.15407286      5.51460165      0.25297564
  H     -2.00678613      6.51634076     -0.35596823
  C      2.38832845      5.08078991      1.82878259
  C      3.41267320      4.43549864      1.13270713
  C      4.42874599      5.16329997      0.53486796
  C      4.43057344      6.54912377      0.61769156
  C      3.41382275      7.20249539      1.30297500
  C      2.39856970      6.47619394      1.90524199
  H      1.60515165      6.99521512      2.43078831
  H      5.22402931      7.11981072      0.14970296
  H      3.41113656      8.28434005      1.36778499
  H      3.40703449      3.35258023      1.05686732
  H     -3.49649999      5.68272170      3.57544531
  C      1.33041127      4.11283361      4.36960222
  C      1.61895754      2.91575065      5.02890456
  C      1.81255710      2.89442166      6.40096074
  C      1.72071284      4.07067650      7.13173334
  C      1.43779453      5.26763038      6.48622142
  C      1.24411690      5.29268136      5.11436911
  H      1.87000860      4.05551565      8.20495825
  H      1.36676277      6.18739512      7.05506797
  H      1.02254020      6.23080674      4.61829958
  H      5.21695486      4.64759540     -0.00154579
  H      2.03364866      1.95697919      6.89896294
  H      1.68945333      1.99453014      4.45882528
  P      1.49242678     -4.51457867      0.36727089
  C     -0.03851915     -5.49776572      0.39001189
  C     -0.02339420     -6.89577811      0.41789511
  C     -1.21068404     -7.61057275      0.40852101
  C     -2.42909407     -6.94451729      0.36582592
  C     -2.45691368     -5.55651737      0.32982371
  C     -1.26897246     -4.84101509      0.33922477
  H     -3.35572728     -7.50627972      0.35925493
  H      0.92388336     -7.42305569      0.44057538
  H     -1.29427879     -3.75745483      0.30644478
  H     -3.40252480     -5.02744750      0.28719317
  C      2.29961623     -4.81275554      1.96672179
  C      3.52720861     -4.18156493      2.19717823
  C      4.15398177     -4.28613983      3.42796262
  C      3.55341327     -5.00547018      4.45474504
  C      2.32930327     -5.62241311      4.24121241
  C      1.70499804     -5.52907762      3.00606391
  H      0.74741975     -6.01291552      2.85190387
  H      4.03904507     -5.07960351      5.42059727
  H      1.85287546     -6.17823795      5.04068094
  H      3.98949588     -3.60361618      1.40287574
  H     -1.18580350     -8.69381010      0.43141762
  C      2.48985239     -5.38698033     -0.87759766
  C      2.13354309     -5.20355080     -2.21780855
  C      2.83250656     -5.84495224     -3.22634244
  C      3.90651160     -6.66839442     -2.91132971
  C      4.27519606     -6.84773245     -1.58512585
  C      3.57154019     -6.21348279     -0.57098232
  H      4.45652172     -7.16763885     -3.70025731
  H      5.11317839     -7.48815165     -1.33580377
  H      3.86394734     -6.36223963      0.46202193
  H      5.11125147     -3.80355477      3.58828523
  H      2.54402192     -5.69727031     -4.26087595
  H      1.30043276     -4.55304285     -2.46704111
  P     -1.33364239     -2.48212109     -4.34594486
  C      0.00836104     -3.24423286     -5.30716929
  C     -0.19953157     -4.27093099     -6.23144161
  C      0.86882703     -4.80927204     -6.93243274
  C      2.15528150     -4.33092865     -6.72202278
  C      2.37329686     -3.31520986     -5.79993348
  C      1.30870780     -2.78100000     -5.09238958
  H      2.98831491     -4.75096395     -7.27328722
  H     -1.20004514     -4.65450127     -6.39609795
  H      1.48310182     -1.99933796     -4.35962804
  H      3.37551670     -2.94116008     -5.62644732
  C     -2.03128244     -1.21771450     -5.45451733
  C     -2.62935038     -0.09930223     -4.86680308
  C     -3.14841075      0.92035438     -5.64774768
  C     -3.06571600      0.84313608     -7.03148455
  C     -2.46739691     -0.25874376     -7.62771885
  C     -1.95354438     -1.28359249     -6.84758602
  H     -1.48178397     -2.13611619     -7.32292400
  H     -3.46274657      1.64386447     -7.64441534
  H     -2.39759474     -0.32000009     -8.70755513
  H     -2.67464712     -0.02533836     -3.78523573
  H      0.69571102     -5.60602320     -7.64642530
  C     -2.58800068     -3.79441711     -4.24848682
  C     -2.37435071     -4.80557890     -3.30587643
  C     -3.29418375     -5.82899813     -3.15082515
  C     -4.44777036     -5.84905997     -3.92579056
  C     -4.67403911     -4.84403676     -4.85629459
  C     -3.75121112     -3.82086017     -5.01901418
  H     -5.17000501     -6.64736087     -3.80216148
  H     -5.57349318     -4.85593826     -5.46084415
  H     -3.93490238     -3.03945608     -5.74751649
  H     -3.60756483      1.78168812     -5.17514093
  H     -3.11420283     -6.60881709     -2.41938680
  H     -1.48018396     -4.78289984     -2.69010823
  P     -0.98926272      3.97996261     -2.77396397
  C     -0.18731312      5.61062921     -2.71535171
  C      1.08011976      5.67424086     -2.12510467
  C      1.74965385      6.88251517     -2.02445726
  C      1.15531580      8.04616021     -2.49625966
  C     -0.10700749      7.99538058     -3.07065661
  C     -0.77831863      6.78597336     -3.18056218
  H      1.67551738      8.99301784     -2.41217626
  H      1.54289924      4.76668261     -1.74956398
  H     -1.76505041      6.75487748     -3.62838773
  H     -0.57454571      8.90224679     -3.43618698
  C     -2.72408268      4.28692321     -3.22023937
  C     -3.65413033      4.32226634     -2.17719097
  C     -5.00186147      4.51110209     -2.43423570
  C     -5.44301418      4.66200313     -3.74207119
  C     -4.53066395      4.62342906     -4.78789114
  C     -3.18029231      4.43531698     -4.53239176
  H     -2.47904166      4.40020363     -5.35810962
  H     -6.49762502      4.80440225     -3.94630520
  H     -4.87092910      4.73829046     -5.81043812
  H     -3.31251855      4.19496340     -1.15460316
  H      2.73352106      6.91630216     -1.56990102
  C     -0.26438871      3.18761607     -4.24461307
  C     -0.03882775      1.81018321     -4.21859632
  C      0.51482681      1.16163750     -5.31086043
  C      0.84649710      1.88076154     -6.45022265
  C      0.63319118      3.25251003     -6.48752771
  C      0.08869860      3.90552618     -5.39194990
  H      1.27637012      1.37370129     -7.30600630
  H      0.89752730      3.81940687     -7.37253121
  H     -0.05399120      4.97981966     -5.42167431
  H     -5.70884784      4.53226988     -1.61227324
  H      0.68497340      0.09161455     -5.27146354
  H     -0.29906529      1.24251326     -3.33136272
  P      0.25915322     -1.32643662      4.57673474
  C      1.57638357     -1.21505198      5.82633535
  C      1.41123469     -0.69924118      7.11330654
  C      2.48731337     -0.63774969      7.98766486
  C      3.73945055     -1.08574766      7.59054866
  C      3.91737966     -1.59295966      6.30999771
  C      2.84569373     -1.65162304      5.43507916
  H      4.57707728     -1.03564449      8.27609334
  H      0.44033552     -0.34225127      7.43673692
  H      2.98720265     -2.04190729      4.43233387
  H      4.89397140     -1.93830006      5.99056994
  C     -0.39297838     -3.01585083      4.78326603
  C     -1.06894898     -3.59219397      3.70530833
  C     -1.63174297     -4.85421161      3.81894480
  C     -1.50472530     -5.56705884      5.00421888
  C     -0.80937612     -5.01535842      6.07172958
  C     -0.25897766     -3.74670356      5.96573249
  H      0.28439865     -3.32427068      6.80322130
  H     -1.94105946     -6.55500408      5.09202846
  H     -0.69843515     -5.57301840      6.99436322
  H     -1.14683049     -3.04686364      2.76964580
  H      2.34420700     -0.23844079      8.98507753
  C     -1.07449237     -0.27499878      5.24179468
  C     -1.32588186      0.95384817      4.63096230
  C     -2.32068298      1.79476914      5.10285565
  C     -3.07110935      1.42609511      6.21029942
  C     -2.82870795      0.20877530      6.83217133
  C     -1.84671896     -0.64155609      6.34771088
  H     -3.84777878      2.08262035      6.58425539
  H     -3.41551368     -0.08666491      7.69406685
  H     -1.68645646     -1.60161586      6.82506997
  H     -2.16661430     -5.28321733      2.97947772
  H     -2.50974069      2.73808009      4.60380739
  H     -0.73231236      1.25458074      3.77478269

