#B3LYP/6-31+G(d) OPT FREQ

246, Energy =   -372.43780610 au

0 1
 Au      0.07890785     -0.15596535     -0.45427658
 Au     -0.35073509      0.25613837     -3.21494560
 Au     -2.04485464      0.05736044      1.01784211
 Au      0.39337935      0.43188153      2.10851770
 Au      2.14607983      0.10582910     -2.26414220
 Au      1.22900552      2.25339597      3.89336542
 Au      0.45050480     -2.13640262     -2.51513667
 Au      1.58569792     -0.24718483      4.39846205
  P      0.52968134     -4.44548730     -1.96322797
  C     -0.39797615     -5.57288104     -3.04430320
  C      0.22708877     -6.30117089     -4.05904021
  C     -0.51983120     -7.10194928     -4.90982168
  C     -1.89916642     -7.17616962     -4.76967625
  C     -2.53375914     -6.43618623     -3.77965156
  C     -1.79074560     -5.63581410     -2.92743410
  H     -2.47930152     -7.80901588     -5.43069779
  H      1.30347266     -6.24906697     -4.17745087
  H     -2.29169540     -5.05980199     -2.15682031
  H     -3.61105192     -6.48373536     -3.66892792
  C     -0.17393375     -4.76985523     -0.31177144
  C     -0.24763974     -3.71385089      0.59723583
  C     -0.78574010     -3.89261482      1.86122747
  C     -1.26303080     -5.14047747      2.23645749
  C     -1.19311713     -6.20261374      1.34509971
  C     -0.65429711     -6.02227766      0.08052044
  H     -0.61686068     -6.85776443     -0.60888511
  H     -1.68780275     -5.28489033      3.22302154
  H     -1.56445102     -7.17875078      1.63474774
  H      0.11918638     -2.73633197      0.30612260
  H     -0.02085382     -7.67166388     -5.68510108
  C      2.21058698     -5.13906567     -1.90028248
  C      3.29004413     -4.29429389     -2.16746572
  C      4.59088853     -4.77128083     -2.12689869
  C      4.83025806     -6.10334813     -1.81814510
  C      3.76451582     -6.95414438     -1.54973175
  C      2.46369874     -6.47793953     -1.58811919
  H      5.84581623     -6.47996760     -1.78902918
  H      3.94818554     -7.99495953     -1.31021954
  H      1.63900451     -7.14907843     -1.37702271
  H     -0.83002930     -3.05728314      2.55154665
  H      5.41654913     -4.10195490     -2.34066311
  H      3.10430240     -3.25376681     -2.41342754
  P      4.38864215      0.37379688     -1.52475281
  C      5.01780186      2.07714924     -1.64336432
  C      6.11194129      2.54086212     -0.90738738
  C      6.57056776      3.83804654     -1.07729229
  C      5.94327328      4.69046366     -1.97678027
  C      4.85197841      4.24204778     -2.70775220
  C      4.39279582      2.94517526     -2.54118601
  H      6.30543669      5.70336102     -2.10764727
  H      6.60473852      1.88697110     -0.19708767
  H      3.53588563      2.59772976     -3.10952749
  H      4.35501391      4.90326059     -3.40817776
  C      5.57603031     -0.61351374     -2.48462233
  C      5.10227683     -1.35797648     -3.56640340
  C      5.96593125     -2.13104518     -4.32736007
  C      7.31872890     -2.16524449     -4.01831113
  C      7.80389768     -1.42205105     -2.94977356
  C      6.94210594     -0.65044733     -2.18734249
  H      7.33091093     -0.07326739     -1.35609405
  H      7.99580536     -2.76803606     -4.61189028
  H      8.86040444     -1.44315594     -2.70914783
  H      4.04536035     -1.32723275     -3.81112751
  H      7.42567553      4.18326071     -0.50782876
  C      4.70593841     -0.08914433      0.20619950
  C      4.30772860      0.78036714      1.22620744
  C      4.50833673      0.44351794      2.55545022
  C      5.08576970     -0.77484435      2.88808527
  C      5.45692039     -1.65775527      1.88429591
  C      5.26417578     -1.32166142      0.55287328
  H      5.24582749     -1.03432197      3.92788341
  H      5.90047867     -2.61376807      2.13743067
  H      5.55959874     -2.01911042     -0.22291325
  H      5.58185584     -2.70360043     -5.16365197
  H      4.22478474      1.14018867      3.33553270
  H      3.85204935      1.73212185      0.97362066
  P     -4.19907271      0.27763638      1.92669571
  C     -5.68834902      0.00799919      0.91627905
  C     -6.97012568      0.03045598      1.47404133
  C     -8.08442597     -0.16817720      0.67494705
  C     -7.93597277     -0.39306733     -0.68773008
  C     -6.66764212     -0.42739606     -1.24910638
  C     -5.54983653     -0.23237591     -0.45145929
  H     -8.80921321     -0.54649074     -1.31077611
  H     -7.09234238      0.20042493      2.53802675
  H     -4.55711660     -0.27645553     -0.88679798
  H     -6.54621524     -0.61205460     -2.31036227
  C     -4.37162357      1.95155684      2.60738480
  C     -3.42414649      2.35648480      3.55416450
  C     -3.43225441      3.64834839      4.05051642
  C     -4.37155569      4.56414325      3.59420419
  C     -5.30650147      4.17770495      2.64469914
  C     -5.30870138      2.88030267      2.15327151
  H     -6.04768802      2.58879750      1.41579421
  H     -4.37026339      5.57844152      3.97547673
  H     -6.03996373      4.88889051      2.28270443
  H     -2.67851228      1.64825747      3.90118897
  H     -9.07342281     -0.14765828      1.11755976
  C     -4.45525202     -0.83245556      3.34348092
  C     -3.98204821     -2.14221985      3.22685248
  C     -4.18300818     -3.05728541      4.24671168
  C     -4.85270296     -2.67277783      5.40156954
  C     -5.31101389     -1.36934901      5.53468382
  C     -5.11608663     -0.45216508      4.51285291
  H     -5.01723610     -3.38975644      6.19731650
  H     -5.82754269     -1.06472974      6.43746251
  H     -5.47599190      0.56410446      4.62511543
  H     -2.69804620      3.94439141      4.79101028
  H     -3.81418020     -4.07153964      4.14274961
  H     -3.45525843     -2.44143414      2.32588912
  P     -0.83179532      2.63270974     -3.55357438
  C      0.33967171      3.80635356     -2.78359902
  C      0.72454948      5.01078062     -3.37458800
  C      1.59118513      5.86956761     -2.71426564
  C      2.08240947      5.54114862     -1.45863413
  C      1.70488764      4.34685095     -0.85964423
  C      0.83909776      3.49045715     -1.51787468
  H      2.76169661      6.21248549     -0.94685256
  H      0.34936637      5.27814193     -4.35554081
  H      0.54371044      2.56116839     -1.04221045
  H      2.08661214      4.07938739      0.11917781
  C     -2.40376351      3.24117524     -2.85416294
  C     -3.14396676      2.41508610     -2.00764296
  C     -4.32432139      2.86723211     -1.43515958
  C     -4.77996688      4.15059611     -1.69972412
  C     -4.04465330      4.98655890     -2.53070609
  C     -2.86273342      4.53910695     -3.09896546
  H     -2.28829755      5.20238460     -3.73597028
  H     -5.70514248      4.49952890     -1.25636016
  H     -4.39251791      5.99224600     -2.73538231
  H     -2.79096914      1.41059620     -1.79686107
  H      1.88305837      6.80122053     -3.18464306
  C     -0.88014780      3.10196501     -5.30591017
  C      0.32131375      3.08757812     -6.02446166
  C      0.32925311      3.32767780     -7.38834603
  C     -0.86261938      3.56925330     -8.05959019
  C     -2.06102800      3.56520887     -7.36089896
  C     -2.07365264      3.32709539     -5.99472968
  H     -0.85633691      3.75510455     -9.12703826
  H     -2.99520523      3.74440044     -7.88061263
  H     -3.01825823      3.31544339     -5.46246640
  H     -4.89041155      2.21444236     -0.78160784
  H      1.26784641      3.32207841     -7.93028804
  H      1.25312954      2.88788584     -5.50503505
  P      1.09900496      4.62103954      3.63041677
  C     -0.32715811      5.03437244      2.57000158
  C     -1.02855397      6.23984523      2.63528248
  C     -2.09969437      6.47604577      1.78567705
  C     -2.48812687      5.51509464      0.86220089
  C     -1.79827049      4.31281835      0.78834383
  C     -0.72839600      4.07891317      1.63436944
  H     -3.33042691      5.69829246      0.20491893
  H     -0.74230721      6.99433435      3.35889260
  H     -0.19619044      3.13611042      1.57444871
  H     -2.09598120      3.55064778      0.07722315
  C      2.50058427      5.26697981      2.66216281
  C      3.60153333      4.43768488      2.44427140
  C      4.69105459      4.88261112      1.71164938
  C      4.69549496      6.16836547      1.18981175
  C      3.60569242      7.00516254      1.39986820
  C      2.51311625      6.55819788      2.12675739
  H      1.66394771      7.21460924      2.28125823
  H      5.54777059      6.52026345      0.62026178
  H      3.61008776      8.01266935      1.00031379
  H      3.60073147      3.43709290      2.86254203
  H     -2.63613906      7.41575531      1.84842377
  C      0.96348371      5.76418335      5.03790406
  C     -0.20047138      5.73043501      5.81390422
  C     -0.32575179      6.53582749      6.93356415
  C      0.71603358      7.37558264      7.30603722
  C      1.88352384      7.40152145      6.55654369
  C      2.01129951      6.59924124      5.43264515
  H      0.61878667      8.00486928      8.18276788
  H      2.70236124      8.04940252      6.84725950
  H      2.92927706      6.62652352      4.85691449
  H      5.53769918      4.22517499      1.55026673
  H     -1.23741681      6.50542021      7.51906499
  H     -1.01322222      5.06887426      5.53203084
  P     -2.38758762     -0.94160263     -4.16291419
  C     -3.58846080      0.01930412     -5.14625301
  C     -3.47669229      0.14729594     -6.53241893
  C     -4.35000349      0.96395137     -7.23493136
  C     -5.33484479      1.67672996     -6.56489651
  C     -5.44721222      1.56728780     -5.18460432
  C     -4.58065989      0.74706916     -4.48086927
  H     -6.01351488      2.31664673     -7.11616968
  H     -2.70772525     -0.39885786     -7.06665770
  H     -4.67439081      0.66618755     -3.40361173
  H     -6.21192547      2.12220480     -4.65321175
  C     -3.44811754     -1.97333408     -3.08689794
  C     -2.98962538     -2.32453772     -1.81656856
  C     -3.73285587     -3.15037269     -0.98655999
  C     -4.95949590     -3.63711162     -1.41687990
  C     -5.43657107     -3.28641272     -2.67313240
  C     -4.69322837     -2.45828427     -3.50127539
  H     -5.08294065     -2.18335673     -4.47460969
  H     -5.54461533     -4.28265035     -0.77275437
  H     -6.39560505     -3.66031018     -3.01220689
  H     -2.03460173     -1.94722873     -1.47011051
  H     -4.25810356      1.04436459     -8.31185452
  C     -1.72089426     -2.13633209     -5.36935912
  C     -0.56495374     -1.76041966     -6.06194576
  C      0.01772617     -2.60962514     -6.98815567
  C     -0.54613096     -3.85391966     -7.23610039
  C     -1.69118320     -4.23971324     -6.55385618
  C     -2.27482745     -3.39154407     -5.62505927
  H     -0.09224667     -4.52247242     -7.95797538
  H     -2.13360650     -5.21117897     -6.74161339
  H     -3.16220212     -3.71463334     -5.09310571
  H     -3.35307312     -3.40619230     -0.00368327
  H      0.91305585     -2.30041557     -7.51488502
  H     -0.12109322     -0.78938952     -5.86622948
  P      2.06828915     -2.46693411      5.09476953
  C      0.57233122     -3.41124277      5.52634060
  C      0.43573283     -4.78517485      5.31599440
  C     -0.71984445     -5.44340111      5.71139802
  C     -1.75278683     -4.73992794      6.31706551
  C     -1.63239874     -3.37116510      6.51768538
  C     -0.48022880     -2.71192150      6.12146811
  H     -2.65040675     -5.25864171      6.63282233
  H      1.23370145     -5.34263251      4.83862577
  H     -0.38830626     -1.64198531      6.27655941
  H     -2.43782618     -2.81583623      6.98425453
  C      3.18500451     -2.74207935      6.50423845
  C      4.16609633     -1.77726611      6.74887712
  C      5.06211349     -1.93102476      7.79445275
  C      4.98341434     -3.04714231      8.61659252
  C      4.00415269     -4.00510802      8.39174931
  C      3.10833584     -3.85626498      7.34408411
  H      2.34097606     -4.60507796      7.18327979
  H      5.68114472     -3.16677967      9.43700646
  H      3.93467141     -4.87342724      9.03668754
  H      4.21970103     -0.89814160      6.11439161
  H     -0.80894291     -6.51227523      5.55476915
  C      2.80738365     -3.44318768      3.74420230
  C      2.50893801     -3.06756217      2.43311098
  C      3.03820057     -3.76129630      1.35794540
  C      3.87773154     -4.84510662      1.57796091
  C      4.18807026     -5.22530986      2.87642394
  C      3.66057043     -4.52878050      3.95331115
  H      4.29722916     -5.38723537      0.73877006
  H      4.84828249     -6.06674712      3.05201430
  H      3.92067520     -4.82520702      4.96305702
  H      5.81921655     -1.17582405      7.97118052
  H      2.80374822     -3.44777972      0.34655296
  H      1.86344247     -2.21367714      2.25706317

