#B3LYP/6-31+G(d) OPT FREQ

246, Energy =   -372.45860465 au

0 1
 Au      3.51218191     -1.39644595      2.59319429
 Au      1.15008711      2.00861736      0.41031680
 Au      0.95809927     -0.08061150      2.21052295
 Au     -1.76642345     -0.32862108     -2.50299510
 Au      2.35294993     -0.49068255      0.03908568
 Au     -0.47817359     -0.18284781     -0.22096364
 Au     -3.06896776     -0.59773751     -0.19940097
 Au      1.68743694     -2.90473045      1.63094792
  P     -2.27777117     -0.05023644     -4.78991305
  C     -1.93675658      1.63644842     -5.37885762
  C     -1.39415911      1.92717197     -6.63221864
  C     -1.13238245      3.24069556     -6.99404292
  C     -1.41350078      4.27856604     -6.11614658
  C     -1.95715870      4.00100397     -4.86826962
  C     -2.20936449      2.68953261     -4.50047239
  H     -1.20979101      5.30346259     -6.40331841
  H     -1.17082081      1.12357269     -7.32433522
  H     -2.62112177      2.47294928     -3.51991673
  H     -2.18388400      4.80714402     -4.17939221
  C     -4.04101442     -0.30476184     -5.15069989
  C     -4.78106460     -1.14177153     -4.31266884
  C     -6.11422114     -1.40926705     -4.57956776
  C     -6.73087970     -0.82816549     -5.67930061
  C     -6.01110636      0.02283486     -6.50761423
  C     -4.67406037      0.28203907     -6.24997728
  H     -4.11638660      0.94362356     -6.90336086
  H     -7.77425216     -1.03395260     -5.88727134
  H     -6.49208533      0.48408026     -7.36226862
  H     -4.30567840     -1.58241679     -3.44290884
  H     -0.70984787      3.45374112     -7.96909955
  C     -1.41928669     -1.13479582     -5.97274559
  C     -0.02114344     -1.16328808     -5.93294422
  C      0.69377865     -1.99227162     -6.78191314
  C      0.02196071     -2.82510841     -7.66768278
  C     -1.36508752     -2.81924817     -7.70235077
  C     -2.08388378     -1.98091028     -6.86253605
  H      0.57995211     -3.47804622     -8.32833155
  H     -1.89414417     -3.46936812     -8.38940881
  H     -3.16675712     -1.98155514     -6.90416994
  H     -6.67434469     -2.06534044     -3.92302680
  H      1.77758157     -1.98803185     -6.75135678
  H      0.50388891     -0.52075798     -5.23547530
  P     -5.32466658     -0.63517465      0.50271798
  C     -5.96409271     -2.21596362      1.13888287
  C     -6.83059667     -2.32613951      2.22807180
  C     -7.23176954     -3.57536008      2.68003014
  C     -6.77018147     -4.72740497      2.05821630
  C     -5.91099476     -4.62973879      0.97145324
  C     -5.51249390     -3.38343418      0.51686279
  H     -7.07942131     -5.70096130      2.41979828
  H     -7.19066352     -1.43407768      2.72743512
  H     -4.84368249     -3.30318384     -0.33275160
  H     -5.54721326     -5.52504782      0.48029623
  C     -6.46752619     -0.19076132     -0.84136492
  C     -6.05530155      0.79218825     -1.74475030
  C     -6.89601794      1.21925566     -2.75893551
  C     -8.15893773      0.65679352     -2.89382718
  C     -8.57129948     -0.33646342     -2.01614621
  C     -7.73403538     -0.75860936     -0.99383666
  H     -8.06470633     -1.53372216     -0.31203802
  H     -8.81764054      0.98776132     -3.68802838
  H     -9.55259664     -0.78364947     -2.12403428
  H     -5.06341952      1.22181869     -1.64729506
  H     -7.90753234     -3.64720726      3.52431321
  C     -5.72232019      0.57862655      1.79757415
  C     -4.69844978      1.00424544      2.64523517
  C     -4.95639631      1.89828971      3.67214778
  C     -6.24030976      2.39223670      3.85581336
  C     -7.26340886      1.99139236      3.00676313
  C     -7.00986455      1.09010655      1.98465036
  H     -6.44250567      3.09325484      4.65706912
  H     -8.26561724      2.38111431      3.14185465
  H     -7.81355677      0.78629534      1.32337193
  H     -6.56291716      1.98559757     -3.44958104
  H     -4.15270741      2.21047137      4.32906544
  H     -3.69253209      0.62721090      2.49500243
  P      3.60105699     -0.87297043     -1.95680501
  C      3.04464916      0.12352726     -3.37960353
  C      3.79560454      0.21475923     -4.55608542
  C      3.35606708      0.99751024     -5.61234783
  C      2.16923083      1.71147354     -5.50819403
  C      1.42184604      1.63902607     -4.34044252
  C      1.85731975      0.84875148     -3.28851498
  H      1.82775632      2.32799328     -6.33149022
  H      4.73143168     -0.32652474     -4.63995620
  H      1.26840505      0.79962185     -2.38046380
  H      0.50412092      2.20631996     -4.24053817
  C      3.56408585     -2.59450245     -2.53869907
  C      3.98056520     -3.58550735     -1.64203570
  C      3.89798670     -4.92512709     -1.98246180
  C      3.37947847     -5.29843418     -3.21604566
  C      2.95614222     -4.32559548     -4.11026176
  C      3.04739121     -2.98178241     -3.77620594
  H      2.71398767     -2.23024539     -4.48232008
  H      3.30172136     -6.34768957     -3.47549808
  H      2.54985134     -4.61103042     -5.07385912
  H      4.36940603     -3.29776175     -0.67044935
  H      3.94644340      1.05599392     -6.51926306
  C      5.36468215     -0.43659250     -1.86646516
  C      5.67983550      0.80340790     -1.30209345
  C      6.99423077      1.23012624     -1.22424224
  C      8.01467134      0.41750214     -1.70247192
  C      7.71479915     -0.82216531     -2.24879696
  C      6.39768533     -1.25004144     -2.33316131
  H      9.04416019      0.75022191     -1.64377328
  H      8.50981283     -1.46040484     -2.61649734
  H      6.17266112     -2.21835336     -2.76497826
  H      4.22902284     -5.68092372     -1.27954124
  H      7.22443734      2.19438631     -0.78578621
  H      4.88094934      1.43598620     -0.92803339
  P      0.18248514     -4.50991972      0.68621895
  C     -1.08425090     -5.22802046      1.77842252
  C     -1.92279371     -6.27278295      1.37541053
  C     -2.87636379     -6.77979780      2.24341666
  C     -2.99723754     -6.26487333      3.52808928
  C     -2.15262166     -5.24697829      3.94750560
  C     -1.20251501     -4.73245499      3.07759940
  H     -3.74366847     -6.66452137      4.20448185
  H     -1.82091713     -6.69531565      0.38191518
  H     -0.54338257     -3.93580005      3.40633021
  H     -2.23351963     -4.84965483      4.95275338
  C      1.10305136     -5.97426765      0.11480172
  C      2.22164191     -6.36089171      0.85754457
  C      2.96569711     -7.47101847      0.49050572
  C      2.60433878     -8.20877814     -0.62943217
  C      1.49747280     -7.83138154     -1.37769441
  C      0.74908335     -6.72341008     -1.00983334
  H     -0.10976107     -6.43689240     -1.60570855
  H      3.18608004     -9.07569831     -0.91944768
  H      1.21184464     -8.40369586     -2.25275108
  H      2.50895808     -5.78129882      1.72852664
  H     -3.52465925     -7.58516005      1.91795132
  C     -0.70999558     -4.02403748     -0.82748985
  C     -2.09439824     -4.07763244     -0.98519119
  C     -2.67613260     -3.75990777     -2.20486725
  C     -1.88558807     -3.36712962     -3.27651954
  C     -0.50852872     -3.25576179     -3.11371383
  C      0.07065897     -3.57671177     -1.89772529
  H     -2.33664537     -3.15760923     -4.23884932
  H      0.11351127     -2.93696213     -3.94204400
  H      1.14536693     -3.50217923     -1.77561549
  H      3.82906843     -7.75987776      1.07843522
  H     -3.75037070     -3.83826380     -2.32529659
  H     -2.72135028     -4.39272400     -0.15960909
  P      5.15793636      0.09510877      3.46809484
  C      4.56686070      1.81818840      3.43624553
  C      4.27779985      2.54129527      4.59320326
  C      3.73945997      3.81812026      4.51097721
  C      3.48971565      4.39152519      3.27331577
  C      3.77895162      3.68296782      2.11332903
  C      4.30233449      2.40329080      2.19423113
  H      3.07412360      5.39016985      3.21077944
  H      4.48226487      2.10678973      5.56477821
  H      4.52067871      1.85113801      1.28600762
  H      3.60428029      4.13344678      1.14300593
  C      6.75192360      0.17018909      2.59635523
  C      7.22298390     -1.00237855      1.99988333
  C      8.45481823     -1.02532111      1.36611499
  C      9.22965280      0.12600610      1.31381439
  C      8.76159858      1.30260324      1.88362439
  C      7.53060271      1.32807982      2.52136647
  H      7.17131383      2.25129858      2.96157113
  H     10.19692985      0.10715739      0.82557134
  H      9.36018518      2.20495179      1.83645746
  H      6.61651716     -1.90143410      2.03843384
  H      3.52238124      4.36846066      5.41920974
  C      5.59630480     -0.18617347      5.20976877
  C      4.70589132     -0.92191166      5.99586047
  C      4.97920660     -1.16426795      7.33258586
  C      6.14808280     -0.67666257      7.90081248
  C      7.04349795      0.05036223      7.12732050
  C      6.77338775      0.29424921      5.79012972
  H      6.36402026     -0.86762766      8.94539106
  H      7.95945151      0.42748085      7.56713794
  H      7.48076017      0.85711671      5.19149361
  H      8.81080279     -1.94242677      0.91112290
  H      4.27981244     -1.73829235      7.92954449
  H      3.79349021     -1.30558847      5.55048277
  P      0.87246269      4.19164007     -0.52788588
  C     -0.86528519      4.53773427     -0.94226981
  C     -1.31825637      5.82103286     -1.26386678
  C     -2.65603992      6.04085656     -1.55455275
  C     -3.56434325      4.99083173     -1.51190704
  C     -3.12845210      3.71565241     -1.17864875
  C     -1.78866987      3.49293797     -0.90173967
  H     -4.61105184      5.16750825     -1.72956456
  H     -0.62132376      6.65133420     -1.27606956
  H     -1.45203350      2.49549885     -0.64288562
  H     -3.83189676      2.89264835     -1.12431999
  C      1.79100335      4.34990120     -2.08984874
  C      3.10044048      3.85848853     -2.10917794
  C      3.87364804      3.94597395     -3.25485482
  C      3.34408360      4.51554085     -4.40554686
  C      2.03813710      4.98645544     -4.40539553
  C      1.26396451      4.90389278     -3.25733595
  H      0.24471370      5.27217713     -3.27214480
  H      3.94629626      4.58455283     -5.30367591
  H      1.61645187      5.42082038     -5.30462284
  H      3.51084764      3.40223209     -1.21416789
  H     -2.99319427      7.03944392     -1.80670560
  C      1.34792914      5.66439967      0.43079569
  C      0.66892812      5.89496337      1.63213416
  C      1.00017505      6.97661441      2.43127455
  C      2.02399796      7.83550238      2.04878882
  C      2.71275060      7.60635402      0.86608692
  C      2.38067379      6.52725548      0.05997607
  H      2.28430090      8.68116667      2.67416094
  H      3.51341869      8.27214666      0.56566986
  H      2.92271365      6.35940419     -0.86344231
  H      4.88784339      3.56318390     -3.25142074
  H      0.45973914      7.14861980      3.35502845
  H     -0.12522604      5.22081000      1.93662572
  P     -0.35800487      0.37634448      4.14959653
  C     -1.87114314     -0.62832401      4.28025545
  C     -2.78118035     -0.46359107      5.32919870
  C     -3.94357666     -1.21671903      5.37311888
  C     -4.21916216     -2.13556553      4.36887199
  C     -3.33079901     -2.29644246      3.31508557
  C     -2.16347785     -1.54894291      3.27376297
  H     -5.12901709     -2.72304848      4.40426679
  H     -2.57640728      0.25909082      6.11126783
  H     -1.46723220     -1.68146511      2.45290867
  H     -3.54103988     -3.00877277      2.52586385
  C     -1.06981540      2.05704014      4.07512280
  C     -1.55185130      2.49316731      2.83781530
  C     -2.13898584      3.74050095      2.70026473
  C     -2.24354445      4.58133869      3.80172256
  C     -1.76634312      4.16132780      5.03535636
  C     -1.19015714      2.90673269      5.17566942
  H     -0.83280607      2.58957400      6.14835167
  H     -2.69875803      5.55906307      3.69708992
  H     -1.84749759      4.81166323      5.89856261
  H     -1.47228597      1.84281966      1.97325773
  H     -4.63974661     -1.08374184      6.19296210
  C      0.44633123      0.26806439      5.77228071
  C      0.22023986     -0.79377698      6.65087664
  C      0.92797246     -0.88313623      7.84022031
  C      1.87497924      0.07819578      8.16426480
  C      2.12673693      1.12431862      7.28563737
  C      1.42683207      1.21396898      6.09366380
  H      2.42046061      0.01138365      9.09810446
  H      2.87262622      1.87177985      7.53039001
  H      1.63792211      2.02410981      5.40309697
  H     -2.52114857      4.05127658      1.73457416
  H      0.73648613     -1.70756817      8.51719963
  H     -0.51573301     -1.55138293      6.40642746

