246
Energy =   -372.43616360 au
 Au     -2.28240544     -2.78831763      0.35822883
 Au      0.35654239     -0.53888765     -3.75791517
 Au     -1.22424192     -1.38089128     -1.72790395
 Au     -2.51105340     -0.17017651      0.36112576
 Au      0.45372248      0.80661743     -1.29701015
 Au      0.78804577      3.10281967     -0.12044509
 Au      1.42363908     -1.88963951     -1.65926406
 Au      0.35588461      0.89152249      1.35168132
  P      1.78015490      0.31315795     -5.51076592
  C      2.72117910      1.77088068     -4.95361886
  C      3.93809118      2.14767968     -5.53153605
  C      4.63216022      3.24878128     -5.05443659
  C      4.12779931      3.99078559     -3.99436592
  C      2.92172179      3.62592546     -3.41213778
  C      2.22813336      2.52609048     -3.89010892
  H      4.67372206      4.84935111     -3.62060186
  H      4.34857820      1.56893997     -6.35094458
  H      1.28770796      2.24547093     -3.43050954
  H      2.51841421      4.19649958     -2.58298586
  C      1.04150224      0.77640830     -7.10662751
  C      0.01963872     -0.04077128     -7.60258318
  C     -0.59367035      0.25333893     -8.80971763
  C     -0.20458805      1.37448183     -9.53071763
  C      0.79814182      2.19945739     -9.04022082
  C      1.41952714      1.90580306     -7.83584972
  H      2.20017642      2.55813217     -7.46178855
  H     -0.68680194      1.60783209    -10.47258180
  H      1.10053738      3.07844693     -9.59755160
  H     -0.29515408     -0.90883774     -7.03213792
  H      5.57434626      3.52768402     -5.51169311
  C      3.11900832     -0.84554738     -5.94327131
  C      4.15278207     -1.04043242     -5.02036019
  C      5.17898485     -1.93044895     -5.28848593
  C      5.17753603     -2.65729314     -6.47242867
  C      4.14387937     -2.49049519     -7.38300247
  C      3.11988753     -1.59153875     -7.12253134
  H      5.98003970     -3.35483209     -6.68130233
  H      4.13564226     -3.05848322     -8.30600535
  H      2.32259140     -1.46257010     -7.84562239
  H     -1.38021969     -0.39081874     -9.18513194
  H      5.97953442     -2.06043435     -4.56886372
  H      4.15724602     -0.47976489     -4.09116540
  P     -2.58839524     -5.15208175      0.51344535
  C     -3.08176926     -5.93503383      2.08199247
  C     -4.42905253     -5.96051792      2.45393462
  C     -4.81132210     -6.47257786      3.68349003
  C     -3.85582138     -6.96179881      4.56454699
  C     -2.51270346     -6.92502904      4.21419319
  C     -2.12697804     -6.40609693      2.98756264
  H     -4.15698170     -7.37098486      5.52159330
  H     -5.18340137     -5.58442277      1.77156741
  H     -1.07548890     -6.37568000      2.72621742
  H     -1.76032039     -7.30095070      4.89803714
  C     -1.16517653     -6.11486900     -0.08846283
  C     -0.23581402     -5.45624187     -0.89873918
  C      0.87362963     -6.12017743     -1.39753125
  C      1.07587334     -7.45845519     -1.08832094
  C      0.15914754     -8.12704726     -0.28850484
  C     -0.95402515     -7.46442720      0.20683005
  H     -1.66110217     -7.99932662      0.83017903
  H      1.94498043     -7.97932885     -1.47275826
  H      0.30978930     -9.17321667     -0.04881656
  H     -0.39044686     -4.41047919     -1.14525793
  H     -5.86077302     -6.49280914      3.95368777
  C     -3.94852623     -5.59546635     -0.61099290
  C     -4.92371940     -4.62753964     -0.86547259
  C     -5.99785148     -4.90560971     -1.69544236
  C     -6.10840013     -6.15571600     -2.28862420
  C     -5.14116162     -7.12300241     -2.04964632
  C     -4.06824425     -6.84820940     -1.21631459
  H     -6.94626513     -6.37534510     -2.93976881
  H     -5.22287186     -8.09876141     -2.51429973
  H     -3.31814267     -7.61034263     -1.03797131
  H      1.58058869     -5.59160877     -2.02792235
  H     -6.74669189     -4.14391079     -1.88112033
  H     -4.83379776     -3.64757447     -0.40743711
  P     -3.72150514      0.03261805      2.58287812
  C     -3.61647479      1.39391654      3.80715984
  C     -4.69975714      1.83635879      4.57001635
  C     -4.54208921      2.86654862      5.48446052
  C     -3.30361420      3.46968462      5.65459150
  C     -2.21685383      3.03046451      4.91149315
  C     -2.37265036      1.99923020      3.99891016
  H     -3.18358293      4.27738531      6.36690113
  H     -5.67327445      1.37547047      4.45042857
  H     -1.51588304      1.65127452      3.42975160
  H     -1.24315936      3.48570764      5.04885062
  C     -3.63846210     -1.42731939      3.68877724
  C     -2.53640956     -2.27957338      3.62029328
  C     -2.43146523     -3.37775534      4.46140331
  C     -3.42892490     -3.63635938      5.38991526
  C     -4.52987647     -2.79416729      5.47197002
  C     -4.63330429     -1.69594481      4.63312293
  H     -5.49774836     -1.04597040      4.70713921
  H     -3.35033371     -4.49564159      6.04544388
  H     -5.31339662     -2.99351071      6.19376508
  H     -1.75044987     -2.08027642      2.90046401
  H     -5.39295485      3.19963032      6.06727975
  C     -5.46632849      0.02302080      2.07191624
  C     -6.15290556      1.21555515      1.82604725
  C     -7.45711648      1.19225041      1.35723186
  C     -8.08442010     -0.01830416      1.09621473
  C     -7.39725313     -1.20836862      1.29468995
  C     -6.09761021     -1.18884357      1.77482120
  H     -9.10360531     -0.03378455      0.72865048
  H     -7.87536777     -2.15640395      1.07630385
  H     -5.56725690     -2.12310616      1.92713637
  H     -1.56955821     -4.03088428      4.38907679
  H     -7.98249423      2.12488842      1.18702542
  H     -5.66416000      2.16718335      2.00540516
  P      3.58316685     -2.61295144     -1.04429276
  C      4.71591475     -1.18507803     -1.02246744
  C      6.03170857     -1.27233456     -0.55795087
  C      6.85742615     -0.15924182     -0.56949048
  C      6.38487903      1.06009154     -1.03813079
  C      5.07769472      1.16373753     -1.49323731
  C      4.25464217      0.04893342     -1.48569657
  H      7.03475614      1.92723275     -1.04764861
  H      6.41133464     -2.21367883     -0.17812423
  H      3.23280142      0.13978365     -1.83609279
  H      4.69593551      2.11270079     -1.85375570
  C      4.24636135     -3.74886797     -2.29897196
  C      3.45787679     -4.04944313     -3.41167088
  C      3.91008369     -4.92295258     -4.38807448
  C      5.16366680     -5.50584345     -4.26822654
  C      5.95958317     -5.21384432     -3.16797460
  C      5.50590429     -4.34635849     -2.18754093
  H      6.13126030     -4.13632003     -1.32757281
  H      5.52070620     -6.18791232     -5.03068337
  H      6.93869586     -5.66793495     -3.07004913
  H      2.48172178     -3.58715324     -3.51301502
  H      7.87566327     -0.24384150     -0.20817294
  C      3.91502041     -3.45365175      0.53228168
  C      4.16749997     -2.70697228      1.68647467
  C      4.36473122     -3.33797534      2.90401125
  C      4.29976493     -4.72219869      2.98993324
  C      4.02634244     -5.47277603      1.85396195
  C      3.82802446     -4.84495577      0.63414695
  H      4.45712829     -5.21512083      3.94196063
  H      3.96759126     -6.55318622      1.91704872
  H      3.61387397     -5.43889550     -0.24736599
  H      3.28406969     -5.14382443     -5.24469573
  H      4.56687664     -2.74447876      3.78858736
  H      4.21677112     -1.62559417      1.62547795
  P      1.10554915     -0.06013086      3.39587460
  C      1.02774621     -1.88018039      3.40218747
  C      1.18319781     -2.65316248      4.55545865
  C      1.19221096     -4.03768536      4.47646383
  C      1.05484869     -4.66983502      3.24745492
  C      0.88954882     -3.91229242      2.09631537
  C      0.87471652     -2.52973818      2.17564687
  H      1.08933869     -5.75094088      3.18570326
  H      1.30076898     -2.17235631      5.51955598
  H      0.75620176     -1.94133263      1.27229717
  H      0.78744871     -4.39703101      1.13267671
  C      0.49838141      0.46109222      5.02735327
  C      1.05649232      1.57820600      5.65703407
  C      0.54249534      2.03654158      6.86030567
  C     -0.54328036      1.39771256      7.44533031
  C     -1.11482648      0.29757852      6.82103310
  C     -0.60279477     -0.16476099      5.61901302
  H     -1.06083617     -1.01984572      5.13576898
  H     -0.94463670      1.75957889      8.38444746
  H     -1.96639329     -0.20231658      7.26805883
  H      1.90293471      2.08429879      5.20589653
  H      1.31946123     -4.62544202      5.37794762
  C      2.90422323      0.22566754      3.49603248
  C      3.57380628      0.79342444      2.41087520
  C      4.94629065      0.98943870      2.44455248
  C      5.67293631      0.61401168      3.56535171
  C      5.02033221      0.04599627      4.65214280
  C      3.64832144     -0.14765889      4.62003169
  H      6.74559454      0.76485988      3.59357875
  H      5.58260550     -0.24671291      5.53116083
  H      3.14987309     -0.58878004      5.47579280
  H      0.99327808      2.89574261      7.34336964
  H      5.44645843      1.43463442      1.59173888
  H      3.01295993      1.08732302      1.53078221
  P      1.42328828      5.33209475      0.32207831
  C      3.10751194      5.62333238     -0.30438876
  C      3.46903996      6.71188949     -1.09860313
  C      4.77688731      6.85153711     -1.54134160
  C      5.73764881      5.91209859     -1.19361046
  C      5.38686035      4.82343362     -0.40413189
  C      4.08071175      4.67559461      0.03057101
  H      6.75946624      6.02742204     -1.53523077
  H      2.72689488      7.45276867     -1.37226264
  H      3.80565459      3.82036752      0.64034004
  H      6.13422834      4.08864747     -0.12676608
  C      1.58885042      5.75412242      2.08187423
  C      1.01407017      4.91871695      3.04102141
  C      1.14941682      5.20101872      4.39137191
  C      1.86071540      6.31999235      4.80104111
  C      2.44183909      7.15493473      3.85567983
  C      2.31138596      6.87441334      2.50509977
  H      2.77954704      7.52132794      1.77149115
  H      1.96690555      6.53818955      5.85714793
  H      3.00324788      8.02629587      4.17188980
  H      0.46317632      4.03917823      2.72307209
  H      5.04632913      7.70250546     -2.15598062
  C      0.41295384      6.64348119     -0.42488639
  C      0.08443868      6.50364988     -1.77780982
  C     -0.72299003      7.43511657     -2.40869715
  C     -1.21965190      8.51888106     -1.69501091
  C     -0.90330267      8.66553992     -0.35155909
  C     -0.09647832      7.73250401      0.28382304
  H     -1.85267386      9.24791056     -2.18678282
  H     -1.28810479      9.50996732      0.20831407
  H      0.13846715      7.85373670      1.33490790
  H      0.70173667      4.54312752      5.12750524
  H     -0.96756521      7.31423788     -3.45768384
  H      0.47275359      5.65776167     -2.33598659
  P     -3.20287964      1.90815049     -0.89500622
  C     -2.46058184      2.15147584     -2.55464354
  C     -2.73321530      1.24011474     -3.57880569
  C     -2.13666930      1.37047438     -4.82423077
  C     -1.26737157      2.42638693     -5.07503894
  C     -0.97494016      3.32815723     -4.06318221
  C     -1.55184173      3.18130491     -2.80968196
  H     -0.82191645      2.54489128     -6.05529798
  H     -3.42820686      0.42637113     -3.40577321
  H     -1.30590949      3.89302991     -2.02998015
  H     -0.29877088      4.15495985     -4.24844661
  C     -3.08378052      3.58337466     -0.17744321
  C     -2.59424346      3.68885306      1.12472605
  C     -2.46974264      4.92099632      1.74777343
  C     -2.83402982      6.07479029      1.06947701
  C     -3.30397094      5.98938615     -0.23476688
  C     -3.42318627      4.75768116     -0.85926323
  H     -3.76975388      4.71117414     -1.88510358
  H     -2.74468624      7.04098748      1.55174517
  H     -3.57436480      6.89076616     -0.77272427
  H     -2.31423706      2.78591107      1.65388047
  H     -2.37067992      0.66223621     -5.61043928
  C     -4.96046248      1.66559543     -1.32763125
  C     -5.35983684      0.35548154     -1.61382312
  C     -6.66116448      0.07524618     -1.99678703
  C     -7.59324472      1.10005532     -2.08748959
  C     -7.21895017      2.39910401     -1.77335174
  C     -5.91499015      2.68163422     -1.39391795
  H     -8.61144300      0.88468021     -2.38895033
  H     -7.94582991      3.20142775     -1.82430855
  H     -5.64832115      3.70049979     -1.14113980
  H     -2.09275962      4.97643219      2.76296520
  H     -6.94837995     -0.94644254     -2.21769987
  H     -4.64316686     -0.45347982     -1.52394272
