246
Energy =   -372.44471669 au
 Au     -1.42953393      3.26885376      0.63910489
 Au      0.14853344      1.38735393     -0.42368836
 Au      2.09574931     -1.60942701     -2.38102431
 Au     -1.33505669     -2.35914706      1.20728685
 Au      0.78208553     -0.62208966      1.46176278
 Au     -0.25726057     -1.28656744     -0.93578729
 Au      0.70926341      0.41764086     -3.09950211
 Au      0.97414128      3.90711872     -0.13697939
  P      3.22016476      4.71470321     -0.10161171
  C      3.83491288      6.14838336     -1.04251129
  C      4.85264815      6.98243370     -0.56984712
  C      5.29128192      8.05268944     -1.33399531
  C      4.72243029      8.30773576     -2.57455915
  C      3.70740805      7.48911377     -3.05066938
  C      3.26659928      6.41902104     -2.28868311
  H      5.06653706      9.14680025     -3.16762493
  H      5.29630890      6.79899391      0.40203035
  H      2.47343234      5.78079395     -2.66139537
  H      3.25497250      7.68406195     -4.01626799
  C      4.37763297      3.37275797     -0.54121668
  C      3.88161235      2.07676940     -0.69261580
  C      4.71249203      1.03199817     -1.06494562
  C      6.06298568      1.26552124     -1.28398719
  C      6.57271261      2.54884076     -1.13191367
  C      5.73846245      3.59538590     -0.76915407
  H      6.14590501      4.59483866     -0.66731826
  H      6.71399768      0.45076463     -1.57951298
  H      7.62616046      2.73699970     -1.30339458
  H      2.82908497      1.88521180     -0.51900918
  H      6.08072809      8.69202923     -0.95624744
  C      3.64380402      5.13818265      1.61453800
  C      3.03343350      6.27122319      2.16625501
  C      3.24239421      6.60980318      3.49301995
  C      4.05511771      5.81536219      4.29217775
  C      4.65833146      4.68707266      3.75617320
  C      4.45264061      4.34412341      2.42757254
  H      4.21720234      6.07644336      5.33126236
  H      5.29503436      4.06611954      4.37551888
  H      4.92855146      3.45938479      2.01964611
  H      4.30175499      0.03507102     -1.19008984
  H      2.76790064      7.49285176      3.90504287
  H      2.39687750      6.89159509      1.54390431
  P      3.49818194     -3.38246512     -1.67854246
  C      5.27763825     -3.00648231     -1.68822328
  C      6.17319105     -3.47591428     -0.72427701
  C      7.51886339     -3.15125187     -0.80318886
  C      7.98880886     -2.36047721     -1.84287147
  C      7.10701039     -1.88807893     -2.80667971
  C      5.76003650     -2.20586342     -2.72715332
  H      9.04180449     -2.11178549     -1.90264650
  H      5.81681098     -4.09234104      0.09304887
  H      5.07042893     -1.83171813     -3.47680705
  H      7.46918986     -1.27497422     -3.62380126
  C      3.36025233     -4.98364705     -2.52770342
  C      2.39756497     -5.13216549     -3.52692395
  C      2.26267459     -6.33420884     -4.20386147
  C      3.08809787     -7.40398105     -3.88770441
  C      4.05160601     -7.26696123     -2.89627554
  C      4.19174790     -6.06543268     -2.22115418
  H      4.95138492     -5.96221553     -1.45425126
  H      2.98430384     -8.34405315     -4.41664186
  H      4.70021756     -8.09977800     -2.65064989
  H      1.75127197     -4.29566316     -3.77175607
  H      8.20420736     -3.52101306     -0.04931787
  C      3.14383356     -3.76249267      0.06468182
  C      3.48251815     -2.80688443      1.02766809
  C      3.17248450     -3.00706160      2.36285165
  C      2.50343536     -4.15925718      2.75660509
  C      2.14493605     -5.10566970      1.80677561
  C      2.45926616     -4.90813753      0.46950482
  H      2.27356928     -4.31876298      3.80358965
  H      1.62802009     -6.01009835      2.10687470
  H      2.18239746     -5.65710901     -0.26348906
  H      1.51202825     -6.43405936     -4.97940844
  H      3.46697278     -2.26963875      3.10078163
  H      4.01287779     -1.91159014      0.72358401
  P     -1.69299774     -2.65675012     -2.39947114
  C     -3.48240178     -2.76148626     -2.03456922
  C     -4.32848153     -3.58520202     -2.78455394
  C     -5.67939610     -3.66416859     -2.48828976
  C     -6.20886757     -2.92474954     -1.43782042
  C     -5.37974595     -2.10338514     -0.68778464
  C     -4.02696859     -2.01989005     -0.98731770
  H     -7.26481127     -2.98943119     -1.20367892
  H     -3.92588898     -4.17006287     -3.60360834
  H     -3.38770120     -1.36837257     -0.40132511
  H     -5.78517259     -1.52094353      0.13102953
  C     -1.22889586     -4.41827129     -2.49562864
  C     -0.72336267     -5.02309299     -1.34238366
  C     -0.41241646     -6.37281915     -1.32486370
  C     -0.59408591     -7.14092804     -2.46687610
  C     -1.08471213     -6.55052512     -3.62353166
  C     -1.40050037     -5.20025233     -3.64133200
  H     -1.77932656     -4.75256082     -4.55271117
  H     -0.35135778     -8.19683920     -2.45553434
  H     -1.22851723     -7.14522929     -4.51804636
  H     -0.57591806     -4.42732611     -0.44685354
  H     -6.32189505     -4.30651048     -3.07900413
  C     -1.67237725     -2.06994145     -4.12246295
  C     -2.68175363     -1.23730305     -4.61248247
  C     -2.60644327     -0.72134840     -5.89708282
  C     -1.52163133     -1.02344066     -6.70788629
  C     -0.49584043     -1.82316704     -6.22168965
  C     -0.56659807     -2.33529009     -4.93646393
  H     -1.47046264     -0.62929434     -7.71564691
  H      0.36056803     -2.05101738     -6.84557206
  H      0.23820141     -2.95794825     -4.56090957
  H     -0.03585252     -6.82778418     -0.41604845
  H     -3.39941853     -0.08111953     -6.26634618
  H     -3.53542856     -0.99856930     -3.98768186
  P      1.77447734      0.21400090      3.47604633
  C      3.53602159      0.66945841      3.51668097
  C      4.14654361      1.17933168      4.66735950
  C      5.50177828      1.47144679      4.66903147
  C      6.26024108      1.28424384      3.51954429
  C      5.65583199      0.81534025      2.36155012
  C      4.30346555      0.50784951      2.36296769
  H      7.31964628      1.51179959      3.52572064
  H      3.55699322      1.35304314      5.56048510
  H      3.82996759      0.14697031      1.45688567
  H      6.23707575      0.68260035      1.45603097
  C      1.51085539     -0.91872635      4.87337734
  C      0.20435116     -1.38491113      5.05757701
  C     -0.10710430     -2.22774284      6.11059447
  C      0.89413167     -2.66216811      6.96979143
  C      2.20409520     -2.25602025      6.76147052
  C      2.51247290     -1.38624842      5.72505006
  H      3.54012563     -1.07377381      5.58266346
  H      0.65316940     -3.32681251      7.79101419
  H      2.99339034     -2.61043970      7.41419951
  H     -0.57004746     -1.08440623      4.35944292
  H      5.96938879      1.84348830      5.57316029
  C      0.96666434      1.76957582      3.98755932
  C      1.22332083      2.90042045      3.20604083
  C      0.56385068      4.09440788      3.44670380
  C     -0.36676001      4.18082470      4.47498348
  C     -0.61576313      3.07106757      5.26902285
  C      0.04423032      1.87391652      5.02850699
  H     -0.88794977      5.11276836      4.65970078
  H     -1.33179084      3.13209246      6.08057925
  H     -0.16126384      1.01875605      5.66162676
  H     -1.13104752     -2.55199266      6.25610773
  H      0.78621425      4.96217684      2.83618903
  H      1.95414063      2.84343952      2.40567715
  P     -3.61355634      3.20025317      1.56590213
  C     -4.76287839      2.27930052      0.49132584
  C     -6.14233710      2.25659289      0.71592137
  C     -6.98536420      1.58582683     -0.15640792
  C     -6.46696944      0.93711221     -1.26964341
  C     -5.09667766      0.93629396     -1.49202453
  C     -4.25101878      1.58866279     -0.60814509
  H     -7.12921708      0.42978760     -1.96130706
  H     -6.55849806      2.77506026      1.57231744
  H     -3.17972829      1.57438525     -0.77547420
  H     -4.68391598      0.42619491     -2.35516187
  C     -4.39301834      4.82421203      1.78537909
  C     -4.03577725      5.59878266      2.89465466
  C     -4.52042636      6.88869862      3.03792511
  C     -5.35379612      7.43155869      2.06859466
  C     -5.69822936      6.67981255      0.95391537
  C     -5.21832955      5.38693704      0.80827764
  H     -5.49527168      4.80809307     -0.06570938
  H     -5.73110739      8.44111358      2.18059901
  H     -6.34383828      7.10049205      0.19169592
  H     -3.37707094      5.18252405      3.65006177
  H     -8.05345965      1.57939459      0.02720012
  C     -3.84141071      2.35675881      3.16565767
  C     -2.95172625      1.33699949      3.51041905
  C     -3.13001879      0.61508652      4.68110399
  C     -4.18952883      0.90805058      5.52828540
  C     -5.07248518      1.92785161      5.20063339
  C     -4.90360386      2.64522165      4.02651587
  H     -4.32449173      0.34302680      6.44303926
  H     -5.89929203      2.16456338      5.86003462
  H     -5.59960319      3.43861641      3.77964969
  H     -4.24405636      7.47330908      3.90775951
  H     -2.44075291     -0.18146325      4.93457301
  H     -2.11376676      1.11219684      2.85771686
  P      0.14252677      2.48203988     -4.23345790
  C     -0.57907352      2.42896605     -5.90702970
  C     -1.85395816      2.89591954     -6.22807708
  C     -2.33097499      2.79467386     -7.52709505
  C     -1.54355470      2.23130482     -8.52099576
  C     -0.27476928      1.75660122     -8.21070386
  C      0.20022338      1.84517442     -6.91242137
  H     -1.91572059      2.16220781     -9.53621319
  H     -2.47564403      3.35316778     -5.46709500
  H      1.18927662      1.46827733     -6.67307336
  H      0.34685639      1.31725605     -8.98224528
  C      1.69615037      3.38107494     -4.53831715
  C      2.85650106      2.97572662     -3.87701261
  C      4.06686630      3.60966527     -4.11104156
  C      4.13451338      4.66231130     -5.01286634
  C      2.98723311      5.07896844     -5.67641939
  C      1.77721504      4.44495498     -5.44379329
  H      0.88887559      4.76903631     -5.97417836
  H      5.08036740      5.15672980     -5.20030995
  H      3.03654428      5.89884998     -6.38347919
  H      2.80807685      2.15000066     -3.17544603
  H     -3.32126825      3.16669180     -7.76312431
  C     -0.89242297      3.67334136     -3.31945099
  C     -2.18105876      3.28399980     -2.94231617
  C     -2.98661614      4.13582776     -2.20093183
  C     -2.50518095      5.37158566     -1.78561717
  C     -1.22013154      5.76133748     -2.13872394
  C     -0.42468798      4.92216368     -2.90662002
  H     -3.13430773      6.02839545     -1.19651920
  H     -0.83678077      6.72556593     -1.82650734
  H      0.56536226      5.24888258     -3.19806973
  H      4.95897079      3.27847002     -3.59186945
  H     -3.99499840      3.83422146     -1.94448143
  H     -2.55389036      2.30702273     -3.23177636
  P     -2.74957563     -3.80148601      2.44243364
  C     -3.10515726     -5.32525662      1.50901961
  C     -2.38934090     -6.50718040      1.71173504
  C     -2.60814138     -7.61040209      0.90026644
  C     -3.53273654     -7.54777484     -0.13335680
  C     -4.24732345     -6.37686273     -0.34654853
  C     -4.03470674     -5.27538519      0.46601871
  H     -3.69703702     -8.40943850     -0.76943087
  H     -1.66238259     -6.57285591      2.51319630
  H     -4.60071372     -4.36695559      0.29805720
  H     -4.97307595     -6.31716145     -1.14972007
  C     -4.38004844     -3.05337819      2.71857854
  C     -4.49583253     -1.66660955      2.60349680
  C     -5.71980405     -1.03901413      2.77765728
  C     -6.84749996     -1.79325976      3.07304998
  C     -6.74640871     -3.17363150      3.18818317
  C     -5.52413678     -3.80292685      3.00998571
  H     -5.45744768     -4.88233818      3.08489761
  H     -7.80583277     -1.30567859      3.20803266
  H     -7.62611873     -3.76488729      3.41409838
  H     -3.61614024     -1.07741845      2.36660226
  H     -2.05224666     -8.52377888      1.07807508
  C     -2.18215824     -4.42371797      4.05405277
  C     -0.84591263     -4.82560875      4.14386986
  C     -0.35294518     -5.38385305      5.31240518
  C     -1.18406760     -5.52667891      6.41596241
  C     -2.50290966     -5.09756696      6.34830289
  C     -3.00313998     -4.55148050      5.17515006
  H     -0.80164708     -5.96474427      7.33027751
  H     -3.15042162     -5.19527615      7.21186143
  H     -4.03652041     -4.22740517      5.13221622
  H     -5.79310119      0.03848536      2.67931580
  H      0.68206428     -5.70183153      5.36383051
  H     -0.19307775     -4.69041380      3.28808412
