#B3LYP/6-31+G(d) OPT FREQ

246, Energy =   -372.46455451 au

0 1
 Au      1.59123829      2.11393207      1.44274301
 Au     -0.88445854     -0.11760613     -2.28384339
 Au      0.93036293     -1.82994983     -0.83890153
 Au     -3.07388030     -0.35063787     -0.47194815
 Au      1.54331126     -0.87665507      1.69701512
 Au     -0.77673242      1.96110757      2.45096200
 Au     -0.34156953      0.27457356      0.29676925
 Au     -2.19764251      2.10561361     -0.60904015
  P     -0.61188031      0.20193750     -4.60475221
  C      1.12746370      0.51236093     -5.03523406
  C      1.60146671      0.42174777     -6.34714137
  C      2.92824053      0.70389281     -6.63468854
  C      3.79985607      1.07845815     -5.61998932
  C      3.34336078      1.15810008     -4.31091641
  C      2.01853944      0.87149459     -4.02099604
  H      4.83485124      1.30431386     -5.84800923
  H      0.92915987      0.12382962     -7.14371003
  H      1.66800062      0.92338560     -2.99554020
  H      4.02088555      1.43955611     -3.51308292
  C     -1.49458788      1.71155750     -5.10301978
  C     -2.74770710      1.94188907     -4.52647556
  C     -3.45044313      3.10336409     -4.80063178
  C     -2.90666732      4.05907176     -5.64901717
  C     -1.66638570      3.83928639     -6.23123387
  C     -0.96319913      2.67429810     -5.96285985
  H      0.00772875      2.51792648     -6.41853341
  H     -3.44937008      4.97410043     -5.85475780
  H     -1.23799112      4.58174433     -6.89449694
  H     -3.16992814      1.20136824     -3.85520910
  H      3.28264384      0.63322062     -7.65634507
  C     -1.12040142     -1.08330780     -5.78440719
  C     -0.61183587     -2.37258514     -5.59730634
  C     -0.96082012     -3.39732888     -6.46060091
  C     -1.83486436     -3.15280418     -7.51239481
  C     -2.35668335     -1.87992266     -7.69754791
  C     -2.00378677     -0.84784325     -6.83956306
  H     -2.11036366     -3.95574573     -8.18583062
  H     -3.04004727     -1.68583599     -8.51596797
  H     -2.41207348      0.14448596     -6.99210531
  H     -4.42191836      3.26484166     -4.34765667
  H     -0.55410560     -4.39070201     -6.30990744
  H      0.06234310     -2.56796384     -4.76923095
  P      1.79427493     -3.81290691     -1.86620398
  C      2.35025279     -4.96567022     -0.57160025
  C      2.03372856     -6.32480569     -0.54259968
  C      2.44080789     -7.11825468      0.52090276
  C      3.16945070     -6.56892160      1.56657233
  C      3.49318434     -5.21857648      1.54737956
  C      3.07923690     -4.42373840      0.49217403
  H      3.48193419     -7.18968429      2.39803529
  H      1.46316315     -6.76585959     -1.35172667
  H      3.31950774     -3.36543226      0.48968736
  H      4.06047869     -4.78137133      2.36126311
  C      3.23829933     -3.62334642     -2.95773464
  C      3.18474150     -2.61490073     -3.92473658
  C      4.24831980     -2.40913591     -4.78721649
  C      5.38810078     -3.19725057     -4.68519925
  C      5.45673168     -4.19239623     -3.71984106
  C      4.38935454     -4.40757503     -2.86036206
  H      4.45041919     -5.18746814     -2.11017882
  H      6.22160491     -3.03441826     -5.35818056
  H      6.34492601     -4.80771634     -3.63589944
  H      2.30144593     -1.98763135     -3.99455559
  H      2.18695561     -8.17189005      0.53022914
  C      0.62207636     -4.77745138     -2.86989716
  C     -0.74345760     -4.52500526     -2.72398195
  C     -1.67816398     -5.26339406     -3.43214511
  C     -1.25932290     -6.25379138     -4.31011006
  C      0.09765526     -6.49786746     -4.48191451
  C      1.03422503     -5.76712520     -3.76713907
  H     -1.98959614     -6.83198164     -4.86389329
  H      0.42815123     -7.26447833     -5.17295655
  H      2.09167625     -5.96112400     -3.90751129
  H      4.19157780     -1.62771838     -5.53633271
  H     -2.73506296     -5.06403934     -3.29983205
  H     -1.07088292     -3.74313894     -2.04688072
  P     -2.89730342      1.58040771      3.52100889
  C     -4.29051736      1.66090526      2.34879251
  C     -5.01938593      0.55021770      1.92015981
  C     -6.00621828      0.69020769      0.95139023
  C     -6.27112952      1.92946684      0.38805072
  C     -5.54844643      3.04029519      0.80298513
  C     -4.56537175      2.90480775      1.76922989
  H     -7.04057854      2.03058499     -0.36804502
  H     -4.83832200     -0.42389768      2.35952485
  H     -4.01291244      3.77864949      2.09629955
  H     -5.75083932      4.01522771      0.37492706
  C     -3.41014850      2.68305229      4.86850510
  C     -2.41746779      3.39979461      5.54115231
  C     -2.74679269      4.25506394      6.58073218
  C     -4.07460657      4.40858821      6.95632200
  C     -5.07033045      3.70603349      6.29022461
  C     -4.74442870      2.84775708      5.25184424
  H     -5.52582001      2.30529444      4.73150746
  H     -4.33445913      5.07911273      7.76692714
  H     -6.10745943      3.82725076      6.58057536
  H     -1.38156599      3.28002618      5.24112960
  H     -6.57629325     -0.17766487      0.64234421
  C     -2.98621774     -0.10048319      4.21389921
  C     -2.51769358     -1.15302982      3.42187098
  C     -2.50806599     -2.45257569      3.90085350
  C     -2.94553375     -2.71909358      5.19223586
  C     -3.39789776     -1.68083735      5.99406153
  C     -3.42084797     -0.38067995      5.51013336
  H     -2.92903705     -3.73408694      5.57140647
  H     -3.73730812     -1.88269910      7.00334322
  H     -3.77890994      0.42152254      6.14491139
  H     -1.96692268      4.80455747      7.09518668
  H     -2.15426178     -3.25813901      3.26767031
  H     -2.15559762     -0.94543381      2.41964460
  P      3.85545633      2.46212150      0.71508478
  C      4.15014743      4.05203321     -0.12279228
  C      4.87804062      5.09623908      0.45069014
  C      5.01058652      6.30766938     -0.21299810
  C      4.41826452      6.49372987     -1.45366054
  C      3.68773219      5.46345517     -2.03163467
  C      3.54685464      4.25472491     -1.36913566
  H      4.52375761      7.44003549     -1.97083518
  H      5.34934020      4.96025318      1.41704009
  H      2.96972666      3.45406834     -1.82123204
  H      3.22149585      5.60321263     -3.00021997
  C      4.68206487      1.26578070     -0.39045016
  C      4.35004342     -0.08481187     -0.28567652
  C      4.94713720     -1.03541572     -1.09610219
  C      5.89179061     -0.64748884     -2.03629016
  C      6.23475260      0.69262452     -2.15366541
  C      5.63736541      1.64352978     -1.33846910
  H      5.91647140      2.68573234     -1.43935783
  H      6.35659367     -1.38786028     -2.67692173
  H      6.97516332      1.00188904     -2.88225185
  H      3.61129070     -0.39368441      0.44651682
  H      5.58151783      7.10805468      0.24302932
  C      4.93372031      2.53130731      2.17658043
  C      4.40559107      3.11334112      3.33360211
  C      5.16108913      3.19745654      4.49189865
  C      6.45665410      2.69795963      4.51065200
  C      6.99029857      2.11701087      3.36863450
  C      6.23538133      2.02876274      2.20872542
  H      7.04936342      2.76065521      5.41560715
  H      8.00159719      1.72734201      3.37997870
  H      6.66023428      1.56784535      1.32431091
  H      4.67317443     -2.07951132     -0.99606571
  H      4.73821490      3.65232048      5.38018984
  H      3.39538840      3.50911694      3.31482984
  P     -1.62818932      4.43653867     -0.80938156
  C     -3.02387938      5.59695500     -0.86855868
  C     -3.00208617      6.86674508     -0.28605324
  C     -4.10705707      7.69888917     -0.38349540
  C     -5.24202838      7.27935510     -1.06364841
  C     -5.27424300      6.01947029     -1.64735308
  C     -4.17418339      5.18267855     -1.54659835
  H     -6.10299799      7.93308810     -1.13766630
  H     -2.12021014      7.20231668      0.24747740
  H     -4.20000455      4.19532248     -1.99687315
  H     -6.15798998      5.68687594     -2.17944596
  C     -0.62092319      4.87413525     -2.26257934
  C      0.22591081      3.90246019     -2.80067070
  C      1.00942671      4.18485481     -3.90846447
  C      0.94951897      5.43935143     -4.50167714
  C      0.10438241      6.40967893     -3.98034538
  C     -0.67475140      6.13159212     -2.86816912
  H     -1.33202589      6.89535023     -2.46853343
  H      1.55503673      5.65554825     -5.37387336
  H      0.05077913      7.38854625     -4.44227944
  H      0.26397194      2.91671885     -2.34717341
  H     -4.07946813      8.68128398      0.07338239
  C     -0.62552947      4.99870569      0.60298503
  C     -1.22628067      5.05723015      1.86629672
  C     -0.48366330      5.37511090      2.99316629
  C      0.87759030      5.62705488      2.88080924
  C      1.48653675      5.56173293      1.63597061
  C      0.74465181      5.24390931      0.50541639
  H      1.46045725      5.87453437      3.76003948
  H      2.54694801      5.76354414      1.53940831
  H      1.23585527      5.19909875     -0.45962270
  H      1.66331828      3.42225161     -4.31471063
  H     -0.97231298      5.43082310      3.95883761
  H     -2.29031573      4.87572935      1.96163168
  P     -4.06488642     -2.54598395     -0.47469605
  C     -2.90935551     -3.86311108      0.05083805
  C     -3.19912329     -5.22223452     -0.09619685
  C     -2.27821961     -6.18513171      0.28645196
  C     -1.05098029     -5.81036251      0.81668646
  C     -0.75189542     -4.46467821      0.97138125
  C     -1.67833803     -3.50245545      0.59883372
  H     -0.32787904     -6.56380953      1.10625857
  H     -4.14984001     -5.53223884     -0.51341918
  H     -1.44400876     -2.45384802      0.73110605
  H      0.20521217     -4.15977766      1.37818194
  C     -4.54542031     -3.07181692     -2.15059452
  C     -3.96180431     -2.41702306     -3.23760283
  C     -4.26359807     -2.78696965     -4.53810545
  C     -5.15283863     -3.82613325     -4.77474699
  C     -5.74474704     -4.48372780     -3.70482250
  C     -5.44909113     -4.10913866     -2.40321741
  H     -5.93216294     -4.62128228     -1.57920865
  H     -5.38887091     -4.11780503     -5.79132607
  H     -6.44521057     -5.29120163     -3.88328689
  H     -3.26471807     -1.60415102     -3.05952464
  H     -2.51913676     -7.23483088      0.16537767
  C     -5.53445702     -2.85706519      0.54908504
  C     -5.38982914     -3.25319540      1.88180238
  C     -6.49924563     -3.38634068      2.70183703
  C     -7.76863631     -3.12119704      2.20622775
  C     -7.92429525     -2.71527931      0.88769338
  C     -6.81630210     -2.57281292      0.06571549
  H     -8.63571490     -3.22903161      2.84697052
  H     -8.91249230     -2.50443442      0.49581707
  H     -6.94696131     -2.24951215     -0.96105570
  H     -3.80777196     -2.26003165     -5.36802663
  H     -6.37022323     -3.69932703      3.73160518
  H     -4.40229449     -3.46556160      2.27604643
  P      2.52838974     -1.49153694      3.75109929
  C      4.30972560     -1.26003346      4.01361338
  C      4.85038079     -0.82562128      5.22637287
  C      6.22348378     -0.70454119      5.37406410
  C      7.07136771     -1.01439470      4.31908987
  C      6.54318801     -1.43739292      3.10628982
  C      5.17147843     -1.55672550      2.95395062
  H      8.14430266     -0.92458251      4.44128691
  H      4.19458854     -0.58576148      6.05539136
  H      4.75979856     -1.88727826      2.00612910
  H      7.20037313     -1.67392342      2.27742219
  C      2.18459956     -3.19716353      4.26828233
  C      0.91387314     -3.70833606      3.98778793
  C      0.58882891     -5.01475882      4.31349220
  C      1.53604976     -5.83413144      4.91408359
  C      2.80228297     -5.33846702      5.19312317
  C      3.12869466     -4.02822376      4.87355546
  H      4.11944604     -3.65014772      5.09732591
  H      1.28693158     -6.85889590      5.16295864
  H      3.54302212     -5.97516974      5.66257787
  H      0.17994274     -3.06693744      3.51149735
  H      6.63328326     -0.36940296      6.31974025
  C      1.70324363     -0.44178248      4.98459760
  C      1.98445090      0.92848874      4.96129088
  C      1.28758880      1.80826082      5.77289119
  C      0.28807793      1.33331135      6.61373662
  C     -0.00663552     -0.02225645      6.63706542
  C      0.69307793     -0.90550226      5.82803140
  H     -0.25832415      2.01896185      7.25055925
  H     -0.78926825     -0.39742410      7.28653525
  H      0.45058463     -1.96149241      5.85684454
  H     -0.40248961     -5.39460021      4.09316292
  H      1.52337929      2.86609610      5.74734067
  H      2.76128905      1.30229357      4.30236087

