#B3LYP/6-31+G(d) OPT FREQ

246, Energy =   -372.45368491 au

0 1
 Au     -0.28728024      1.91179998      3.03144830
 Au     -0.31496342     -0.40412304     -1.86134345
 Au      1.17607499     -1.62918190     -0.05049721
 Au      2.08388176     -1.74457254     -2.80435277
 Au     -1.53204393     -1.65633613      0.35256492
 Au     -0.66989501      3.29506734      0.83160997
 Au      2.56673239      0.47545217     -1.60154662
 Au     -0.15194821      0.72946568      0.68818946
  P      1.62968698     -3.82394440     -3.90187397
  C      2.92889542     -5.07989695     -3.70991661
  C      2.71137950     -6.34587259     -3.16422627
  C      3.77224320     -7.22127756     -2.98285526
  C      5.06086858     -6.84261090     -3.33070758
  C      5.29065396     -5.58021849     -3.86374280
  C      4.23436261     -4.70346526     -4.04684404
  H      5.88659508     -7.52915515     -3.18596936
  H      1.71040679     -6.65085449     -2.88062011
  H      4.41552371     -3.71600659     -4.45892994
  H      6.29520706     -5.27905111     -4.13767309
  C      1.44126805     -3.61212500     -5.69819318
  C      0.86601910     -2.41896396     -6.14481962
  C      0.65511027     -2.19833219     -7.49577694
  C      1.02779011     -3.16429894     -8.42137948
  C      1.61477195     -4.34625179     -7.99053698
  C      1.82112410     -4.57287834     -6.63787577
  H      2.28752822     -5.49503652     -6.31018793
  H      0.86692913     -2.99227900     -9.47914760
  H      1.91465294     -5.09773607     -8.71164618
  H      0.58785568     -1.65716814     -5.42286848
  H      3.58856602     -8.20568363     -2.56777501
  C      0.08692835     -4.68859860     -3.44017575
  C     -0.57064825     -4.31898420     -2.26791848
  C     -1.76254968     -4.91975922     -1.89533680
  C     -2.31349911     -5.91402939     -2.69051041
  C     -1.66613378     -6.30006644     -3.85781612
  C     -0.47867317     -5.69053669     -4.23440217
  H     -3.24786502     -6.38254558     -2.40348312
  H     -2.09067638     -7.07823184     -4.48132493
  H      0.00958097     -5.99035963     -5.15471886
  H      0.20455897     -1.26881236     -7.82595556
  H     -2.26177983     -4.60662571     -0.98511368
  H     -0.14062890     -3.54800298     -1.63918032
  P     -1.76278908      0.36442411     -3.58581210
  C     -2.84446078      1.73146495     -3.05672986
  C     -3.23301048      2.77627736     -3.89795653
  C     -4.06448015      3.78277223     -3.42931983
  C     -4.52174015      3.75910925     -2.11947590
  C     -4.13782510      2.72838664     -1.27154795
  C     -3.30401769      1.72478575     -1.73627872
  H     -5.17437786      4.54503203     -1.75810518
  H     -2.88284056      2.80351648     -4.92349111
  H     -3.00784041      0.92121343     -1.06968158
  H     -4.48788570      2.70595094     -0.24539033
  C     -2.92895525     -0.89356315     -4.19377851
  C     -2.43823999     -2.18630414     -4.39428337
  C     -3.25702460     -3.18233052     -4.89928384
  C     -4.58393009     -2.90384636     -5.19990533
  C     -5.08774604     -1.62762969     -4.98699031
  C     -4.26789835     -0.62667059     -4.48680548
  H     -4.67013322      0.36704135     -4.32704514
  H     -5.22457823     -3.68163422     -5.59841415
  H     -6.12307363     -1.40613257     -5.21876061
  H     -1.40375143     -2.40702271     -4.15274853
  H     -4.35696716      4.58874863     -4.09233324
  C     -0.95789379      0.94311979     -5.11310126
  C      0.35254476      1.41998098     -5.03107136
  C      1.02501890      1.84576259     -6.16585408
  C      0.39569947      1.79676940     -7.40253918
  C     -0.90544703      1.32084201     -7.49818065
  C     -1.57998024      0.89555479     -6.36350760
  H      0.92098733      2.12352955     -8.29213904
  H     -1.39893308      1.27876376     -8.46213266
  H     -2.59159248      0.51565927     -6.44980904
  H     -2.85974874     -4.17819398     -5.05822183
  H      2.04319238      2.20862364     -6.08494158
  H      0.84977979      1.44478604     -4.06686844
  P     -0.30027316      1.64783340      5.36649628
  C     -0.80447809      3.09585651      6.34097582
  C     -1.35276413      3.00135650      7.62294186
  C     -1.71034750      4.14776299      8.31568847
  C     -1.53096618      5.39840780      7.73976080
  C     -0.99890708      5.50264733      6.46152720
  C     -0.64214595      4.35880138      5.76585447
  H     -1.81254267      6.29174566      8.28462191
  H     -1.50909079      2.02813549      8.07455156
  H     -0.23788491      4.43952755      4.76195044
  H     -0.86513647      6.47597461      6.00297911
  C      1.29488823      1.11586957      6.05916321
  C      2.12849813      0.35826986      5.23229684
  C      3.34449824     -0.11856136      5.69629757
  C      3.75084433      0.16918812      6.99264616
  C      2.94021992      0.93811672      7.81666383
  C      1.71968725      1.40939435      7.35651836
  H      1.09684311      2.01299949      8.00671882
  H      4.70215927     -0.19972768      7.35754741
  H      3.25913331      1.17254601      8.82556599
  H      1.81815012      0.14653452      4.21432043
  H     -2.13375700      4.06332516      9.30978992
  C     -1.45601144      0.33753283      5.87768843
  C     -2.62400554      0.18072195      5.12769130
  C     -3.55014367     -0.79613180      5.45371220
  C     -3.31889764     -1.63522041      6.53563318
  C     -2.15793200     -1.49643907      7.28357854
  C     -1.22946712     -0.51795361      6.95869067
  H     -4.04183827     -2.40057238      6.79221396
  H     -1.97266903     -2.15259848      8.12613268
  H     -0.32578321     -0.41719717      7.54903093
  H      3.97437713     -0.71318376      5.04386369
  H     -4.45104329     -0.90579266      4.86036331
  H     -2.80354183      0.83437520      4.28058031
  P     -1.19605145      5.42807254     -0.02996541
  C     -2.95194045      5.83469667      0.22409309
  C     -3.66935690      6.72362318     -0.57822953
  C     -5.00901607      6.97555914     -0.32195606
  C     -5.65038216      6.34641860      0.73691051
  C     -4.94759866      5.45925737      1.54096537
  C     -3.61031682      5.20291052      1.28298154
  H     -6.69733996      6.54502721      0.93312854
  H     -3.18381071      7.21725157     -1.41181670
  H     -3.06444139      4.50038148      1.90475443
  H     -5.44236318      4.96263185      2.36789087
  C     -0.87998493      5.70944503     -1.79611434
  C     -0.71976124      4.59190922     -2.61755953
  C     -0.52694721      4.73967008     -3.98203750
  C     -0.48307091      6.00788468     -4.54474619
  C     -0.61840005      7.12780430     -3.73511063
  C     -0.81511048      6.98310965     -2.37051704
  H     -0.91083223      7.86395975     -1.74613443
  H     -0.33586339      6.12284342     -5.61220769
  H     -0.57267612      8.12009268     -4.16841711
  H     -0.74844519      3.59911832     -2.17960275
  H     -5.55397980      7.66788652     -0.95304007
  C     -0.30572860      6.75690248      0.83285778
  C     -0.76113285      7.20391182      2.07679642
  C     -0.02133437      8.11873507      2.80911426
  C      1.18720783      8.59341742      2.31609617
  C      1.65444604      8.14696877      1.08760571
  C      0.91870660      7.22998570      0.35263170
  H      1.76418701      9.30907288      2.88962160
  H      2.59820201      8.51153004      0.69817248
  H      1.29572559      6.88349376     -0.60353777
  H     -0.40709498      3.86228904     -4.60708598
  H     -0.39034617      8.46154898      3.76912764
  H     -1.70317483      6.83654992      2.46962833
  P     -3.64032742     -2.37126267      1.17409150
  C     -4.64693691     -3.38688098      0.05715723
  C     -4.77515656     -4.76851115      0.21843167
  C     -5.45447924     -5.52454229     -0.72577399
  C     -6.00560459     -4.91417280     -1.84411734
  C     -5.87198416     -3.54276934     -2.01974969
  C     -5.18923402     -2.78447615     -1.08370063
  H     -6.53813184     -5.50587693     -2.57926692
  H     -4.34874136     -5.25246382      1.08979018
  H     -5.07690145     -1.71517246     -1.23204589
  H     -6.29732891     -3.06190540     -2.89297390
  C     -4.68954449     -0.93377494      1.55760912
  C     -4.05523840      0.27823517      1.83855199
  C     -4.78991916      1.41079487      2.15097045
  C     -6.17701302      1.34892650      2.17854002
  C     -6.82026546      0.15217808      1.89288255
  C     -6.08526545     -0.98287796      1.58533449
  H     -6.59855870     -1.90999642      1.35723261
  H     -6.75490587      2.23375165      2.41849835
  H     -7.90273910      0.10105298      1.90904420
  H     -2.97234615      0.33151613      1.80630738
  H     -5.55623993     -6.59419335     -0.58381110
  C     -3.54755871     -3.29934580      2.73476345
  C     -2.28676027     -3.60847389      3.24800289
  C     -2.15770788     -4.31289365      4.43440068
  C     -3.29150522     -4.71849677      5.12457561
  C     -4.55252461     -4.41272078      4.62674607
  C     -4.68318895     -3.70577448      3.44200576
  H     -3.19419037     -5.27295816      6.05049861
  H     -5.43913264     -4.72807824      5.16430370
  H     -5.67039581     -3.46916794      3.06133675
  H     -4.27780025      2.34019874      2.37368940
  H     -1.17048994     -4.54394917      4.81853407
  H     -1.40011160     -3.29317333      2.70769710
  P      3.51614036      2.48589548     -0.65590763
  C      3.17503317      3.03287523      1.05456363
  C      3.74211948      2.33787834      2.12630533
  C      3.46322189      2.70235511      3.43336845
  C      2.59515535      3.75415189      3.69813646
  C      2.01246047      4.44365415      2.64328107
  C      2.29722182      4.08322225      1.33256006
  H      2.38279505      4.04090536      4.72129672
  H      4.42143658      1.51419819      1.93550935
  H      1.85024040      4.64469139      0.52119927
  H      1.34162448      5.27285706      2.83580734
  C      3.33257427      3.99007097     -1.66028407
  C      2.83610798      3.84032441     -2.95663207
  C      2.70033644      4.93299187     -3.79778801
  C      3.04792771      6.19971902     -3.35005572
  C      3.54301064      6.36491681     -2.06306744
  C      3.69011358      5.27055638     -1.22369156
  H      4.08214090      5.41483006     -0.22348348
  H      2.93527752      7.05697274     -4.00329558
  H      3.82711684      7.35060290     -1.71290745
  H      2.55642707      2.85153041     -3.30468986
  H      3.93001930      2.16608693      4.25098656
  C      5.31297141      2.18545759     -0.60102721
  C      5.73665779      0.88547309     -0.30879812
  C      7.08635409      0.58085486     -0.23833132
  C      8.03493252      1.56759893     -0.46808472
  C      7.62614420      2.85894777     -0.77114817
  C      6.27615086      3.16790813     -0.83688766
  H      9.09067903      1.32861741     -0.41802940
  H      8.36210865      3.63208404     -0.95909988
  H      5.97370725      4.17960508     -1.08056662
  H      2.31940434      4.79561319     -4.80322036
  H      7.39648809     -0.43236841     -0.01023849
  H      4.99887159      0.10655247     -0.14363657
  P      2.49304434     -3.21082057      1.16164465
  C      4.28077341     -3.16470391      0.85470188
  C      5.21366847     -2.74649785      1.80487040
  C      6.56200357     -2.68743690      1.48290320
  C      6.99406290     -3.02887518      0.20823062
  C      6.06913111     -3.40957621     -0.75651255
  C      4.72340062     -3.46914705     -0.43820502
  H      8.04957821     -2.99744190     -0.03455811
  H      4.88693499     -2.47284363      2.80194992
  H      4.00310106     -3.76017187     -1.19684977
  H      6.39629371     -3.66392724     -1.75830334
  C      1.99813821     -4.91342700      0.73297317
  C      0.62745869     -5.18112674      0.67636743
  C      0.16381027     -6.45313877      0.38554954
  C      1.06574943     -7.48116909      0.14440876
  C      2.42906585     -7.22972642      0.20763352
  C      2.89548154     -5.95647641      0.50037087
  H      3.96320621     -5.77757419      0.54803184
  H      0.70582987     -8.47658395     -0.08722990
  H      3.13794925     -8.03061276      0.03230061
  H     -0.08073857     -4.38025602      0.86564174
  H      7.27894500     -2.37620204      2.23381627
  C      2.25626437     -3.26040567      2.96771520
  C      1.24464655     -2.48716316      3.53826382
  C      0.95937885     -2.58273166      4.89246038
  C      1.69305165     -3.44275210      5.69732112
  C      2.70512268     -4.21480705      5.14131072
  C      2.97939322     -4.13457115      3.78537015
  H      1.47434112     -3.51328739      6.75637805
  H      3.27708425     -4.89128578      5.76565459
  H      3.75368998     -4.75972175      3.35475104
  H     -0.90296455     -6.64119995      0.34327637
  H      0.16567047     -1.98028278      5.31932139
  H      0.67431431     -1.80763417      2.91388028

