#B3LYP/6-31+G(d) OPT FREQ

246, Energy =   -372.45807392 au

0 1
 Au     -2.15026780      1.92954317     -0.59283311
 Au     -2.66655014      0.21970551      1.70185455
 Au      1.48839211     -1.92338963     -0.00022322
 Au     -0.33962003      0.05018678     -0.04542430
 Au      0.44784349      2.07796054     -1.64085170
 Au     -2.84294855     -1.05055182     -0.55914824
 Au     -0.87343463     -2.10592081      1.45108348
 Au      2.15327110      0.81993308      0.23207729
  P     -3.33362832     -2.53011790     -2.37173003
  C     -2.04740388     -2.82715978     -3.62924998
  C     -0.74533342     -3.07751908     -3.18645309
  C      0.26454087     -3.35812281     -4.09106465
  C     -0.00639857     -3.37904853     -5.45382509
  C     -1.28972887     -3.10400779     -5.90571573
  C     -2.30467660     -2.82926592     -5.00119034
  H      0.78080820     -3.61676506     -6.15967011
  H     -0.52833834     -3.06528086     -2.12254027
  H     -3.30561707     -2.62442450     -5.36299325
  H     -1.50494500     -3.11141991     -6.96789592
  C     -4.82188385     -2.09822770     -3.32067786
  C     -5.07286931     -0.73965680     -3.53590321
  C     -6.19651263     -0.33189007     -4.23545710
  C     -7.09086246     -1.27680249     -4.72117141
  C     -6.85645959     -2.62790089     -4.50498158
  C     -5.72991591     -3.04002066     -3.80941014
  H     -5.55687032     -4.09677199     -3.64031735
  H     -7.97399438     -0.95925720     -5.26291371
  H     -7.55623467     -3.36674128     -4.87782006
  H     -4.37931446     -0.00088427     -3.14590150
  H      1.26645697     -3.56768655     -3.73459211
  C     -3.64382316     -4.20044967     -1.71991972
  C     -4.11259130     -4.31244228     -0.40889736
  C     -4.34963630     -5.55377416      0.15810952
  C     -4.11814051     -6.70699269     -0.58018537
  C     -3.65164272     -6.61026374     -1.88483821
  C     -3.41339959     -5.36722260     -2.45306791
  H     -4.30056243     -7.67995700     -0.13932531
  H     -3.47239289     -7.50787818     -2.46534847
  H     -3.03922759     -5.30353607     -3.46850262
  H     -6.37824020      0.72519370     -4.39422431
  H     -4.71511715     -5.61984752      1.17672205
  H     -4.29036812     -3.41188585      0.16955804
  P     -3.31728713      3.99960957     -0.94740600
  C     -1.98746178      5.23863003     -1.10587636
  C     -2.01980006      6.30566347     -2.00406396
  C     -0.96036982      7.19800382     -2.07607343
  C      0.14485906      7.04257341     -1.25087382
  C      0.19035016      5.98349256     -0.35336385
  C     -0.86534840      5.08849749     -0.28526003
  H      0.96641549      7.74729518     -1.30345306
  H     -2.87423258      6.43888616     -2.65743553
  H     -0.82572474      4.26537825      0.41971652
  H      1.04835842      5.85277155      0.29652036
  C     -4.42831574      4.74409895      0.28841817
  C     -5.78247536      4.39531650      0.29790126
  C     -6.63486237      4.91815409      1.25730345
  C     -6.14392969      5.77256462      2.23608055
  C     -4.79510644      6.09944353      2.25450617
  C     -3.94182739      5.59055885      1.28774051
  H     -2.89344338      5.86664509      1.29926788
  H     -6.81198021      6.18095705      2.98506786
  H     -4.40537910      6.76099196      3.01960491
  H     -6.17098071      3.72283327     -0.45929682
  H     -0.99894812      8.01854295     -2.78324236
  C     -4.22667459      4.09766248     -2.51588704
  C     -4.00012997      3.09405485     -3.46098724
  C     -4.62554828      3.13052086     -4.69753044
  C     -5.49747591      4.16817439     -5.00151131
  C     -5.74328221      5.16307718     -4.06446581
  C     -5.11346979      5.13203813     -2.82971653
  H     -5.98906916      4.19807794     -5.96670872
  H     -6.42850646      5.97000377     -4.29655613
  H     -5.31612831      5.90971761     -2.10221936
  H     -7.68698113      4.65838126      1.23969361
  H     -4.43215756      2.34943750     -5.42382595
  H     -3.32689091      2.27790419     -3.21819621
  P     -2.53635902      1.39555544      3.76190969
  C     -3.97293249      2.38774779      4.26357531
  C     -3.95341199      3.20586339      5.39785905
  C     -5.08951305      3.90228447      5.77601747
  C     -6.26102214      3.78086768      5.03931156
  C     -6.29134597      2.96838568      3.91462066
  C     -5.15273592      2.28010452      3.52551571
  H     -7.15138565      4.31780786      5.34459254
  H     -3.04672328      3.29038122      5.98671031
  H     -5.17517029      1.64851216      2.64340097
  H     -7.20359244      2.86892110      3.33807257
  C     -1.15789354      2.56619896      3.59284315
  C      0.14058762      2.05340325      3.49994170
  C      1.21281562      2.89042890      3.24144149
  C      1.00386206      4.25131463      3.05517190
  C     -0.28176321      4.76853824      3.12731387
  C     -1.35751507      3.93196822      3.38925397
  H     -2.35925282      4.34389950      3.43766855
  H      1.84236481      4.90686011      2.85210174
  H     -0.44994621      5.82923054      2.98054069
  H      0.30792894      0.98961010      3.63318605
  H     -5.06382220      4.53570156      6.65502314
  C     -2.15711210      0.43645209      5.26217885
  C     -2.75510879     -0.81956982      5.39437611
  C     -2.54536093     -1.58630189      6.52931946
  C     -1.73296272     -1.10731157      7.54805234
  C     -1.13107712      0.13816532      7.42572752
  C     -1.33921804      0.90839724      6.29112992
  H     -1.56503164     -1.70583398      8.43561299
  H     -0.49600975      0.51441343      8.21933668
  H     -0.86193148      1.87770597      6.20333041
  H      2.21531603      2.48075339      3.18686921
  H     -3.01320887     -2.56051247      6.61579030
  H     -3.38782794     -1.19635446      4.59734936
  P      2.87530355     -3.69361481     -0.79168664
  C      3.91028879     -3.20006473     -2.20561588
  C      5.09790477     -3.84527698     -2.55675769
  C      5.81362451     -3.43711201     -3.67242714
  C      5.35685976     -2.38041001     -4.44932499
  C      4.18552583     -1.72009217     -4.09935479
  C      3.47121298     -2.12407766     -2.98265565
  H      5.91372842     -2.06909495     -5.32524902
  H      5.46581405     -4.66660066     -1.95224257
  H      2.56144845     -1.60104558     -2.70492389
  H      3.82857254     -0.88770289     -4.69524643
  C      1.87583782     -5.06860879     -1.44673981
  C      0.62697692     -5.29242504     -0.86222429
  C     -0.19294354     -6.31518736     -1.30914359
  C      0.21878691     -7.12529282     -2.35846619
  C      1.45304113     -6.90761630     -2.95526701
  C      2.27808027     -5.88763006     -2.50496452
  H      3.23661527     -5.72263103     -2.98365182
  H     -0.42379877     -7.92285352     -2.71264250
  H      1.77683623     -7.53488829     -3.77764963
  H      0.29953225     -4.65727083     -0.04618677
  H      6.73213706     -3.94776124     -3.93724689
  C      4.02158898     -4.48649407      0.37604265
  C      4.56286844     -3.68881546      1.38753894
  C      5.43714726     -4.22838855      2.31698868
  C      5.77422207     -5.57377123      2.25532329
  C      5.23447282     -6.37761954      1.26027277
  C      4.36247407     -5.84031376      0.32495831
  H      6.45445467     -5.99666646      2.98516059
  H      5.49343493     -7.42881932      1.21018473
  H      3.94182650     -6.47592808     -0.44591452
  H     -1.15564375     -6.47771305     -0.83844546
  H      5.85220953     -3.59698367      3.09436518
  H      4.29098297     -2.63917011      1.44353470
  P      1.47266718      3.26564000     -3.46092506
  C      1.76171600      2.09989285     -4.82937273
  C      2.37639353      2.49952573     -6.02038002
  C      2.55189344      1.59760069     -7.05704579
  C      2.10913188      0.28759862     -6.92502405
  C      1.49194679     -0.11796503     -5.74975004
  C      1.32083231      0.78208462     -4.70895666
  H      2.24127645     -0.41563027     -7.73893215
  H      2.71523177      3.52349358     -6.13345752
  H      0.83752254      0.46217617     -3.79150181
  H      1.13464799     -1.13582018     -5.64414474
  C      3.11721502      3.96452585     -3.12769580
  C      3.22446625      5.19918308     -2.47869337
  C      4.46736637      5.72154178     -2.15589000
  C      5.62114408      5.00908485     -2.45495042
  C      5.52484600      3.77087706     -3.07419408
  C      4.28404094      3.24682890     -3.40191299
  H      4.22237011      2.27630827     -3.88187625
  H      6.59294491      5.41742522     -2.20387707
  H      6.42185185      3.20817501     -3.30578028
  H      2.32601864      5.75522605     -2.23374225
  H      3.03116503      1.91906892     -7.97439150
  C      0.54370734      4.58688617     -4.30581216
  C     -0.83583408      4.40392519     -4.43415019
  C     -1.61245587      5.32910996     -5.11248278
  C     -1.02330757      6.46232740     -5.65785314
  C      0.34503390      6.65729703     -5.53129552
  C      1.12752672      5.72367300     -4.86800253
  H     -1.63040498      7.19070569     -6.18227291
  H      0.81030185      7.53819219     -5.95813480
  H      2.19675152      5.88230061     -4.79036372
  H      4.53506773      6.68856070     -1.67091810
  H     -2.67931882      5.16611836     -5.21441899
  H     -1.30021015      3.52531270     -3.99746032
  P     -1.09777416     -3.84018591      3.09309397
  C     -0.47935812     -5.48252932      2.62125847
  C      0.90161948     -5.68268956      2.51151849
  C      1.40330343     -6.89350778      2.06273519
  C      0.53647131     -7.91581036      1.69897439
  C     -0.83539482     -7.72086805      1.78439922
  C     -1.34189879     -6.51188014      2.23801294
  H      0.93016541     -8.86127085      1.34513643
  H      1.58425142     -4.88467119      2.78521346
  H     -2.41479082     -6.36777976      2.30038355
  H     -1.51662663     -8.51383671      1.49799120
  C     -2.75013881     -4.14753905      3.79651868
  C     -3.83685144     -3.44880610      3.26647322
  C     -5.11471297     -3.63354718      3.77214399
  C     -5.32205522     -4.51925461      4.82031399
  C     -4.24951122     -5.22004994      5.35669694
  C     -2.97217620     -5.03842448      4.85035296
  H     -2.14301050     -5.59242898      5.27492905
  H     -6.31900675     -4.66432390      5.21922425
  H     -4.40825312     -5.91344523      6.17438687
  H     -3.67517527     -2.75532325      2.44777530
  H      2.47562202     -7.03669390      1.99154728
  C     -0.06000096     -3.39448363      4.52194924
  C      0.29419362     -2.05326042      4.67828533
  C      1.07613757     -1.64201388      5.74594901
  C      1.51970699     -2.57226430      6.67695176
  C      1.18379352     -3.91127147      6.52793442
  C      0.40252977     -4.32244651      5.45915364
  H      2.12810544     -2.25375899      7.51516324
  H      1.53332464     -4.64156303      7.24843000
  H      0.15857240     -5.37267162      5.34796079
  H     -5.94679033     -3.08365023      3.34785055
  H      1.32952791     -0.59375930      5.85594221
  H     -0.05155637     -1.32530625      3.95193643
  P      4.30381530      1.42821272      0.96932146
  C      4.45386085      3.11756462      1.62807404
  C      5.07713777      3.42693677      2.83852415
  C      5.14471284      4.74163238      3.27553657
  C      4.59210679      5.76165118      2.51397068
  C      3.96174515      5.46313567      1.31203846
  C      3.88770039      4.15040000      0.87506089
  H      4.64845587      6.78807948      2.85646383
  H      5.51181990      2.63801280      3.44130702
  H      3.38666563      3.91927310     -0.05953408
  H      3.52627262      6.25570402      0.71432047
  C      5.64651952      1.31680490     -0.25009083
  C      5.53112717      0.37946936     -1.27895109
  C      6.54553305      0.23076797     -2.21095042
  C      7.68613445      1.01869958     -2.13055844
  C      7.80556815      1.96195409     -1.11817944
  C      6.79210941      2.11436206     -0.18441332
  H      6.88760477      2.85987808      0.59673019
  H      8.47988506      0.89973917     -2.85850589
  H      8.69168530      2.58262999     -1.05488040
  H      4.63888431     -0.23527691     -1.34655330
  H      5.63325933      4.96907188      4.21582455
  C      4.85047801      0.34523760      2.32610057
  C      3.87842336     -0.32718817      3.07081360
  C      4.23848526     -1.15886045      4.11915285
  C      5.57862433     -1.33038385      4.44022387
  C      6.55520863     -0.67526679      3.70100092
  C      6.19658552      0.15345017      2.64914747
  H      5.86131009     -1.97282170      5.26584391
  H      7.60252588     -0.81114195      3.94422636
  H      6.96716455      0.65213849      2.07222535
  H      6.44515673     -0.50122068     -3.00395720
  H      3.47094785     -1.67555400      4.68426340
  H      2.83014766     -0.19596896      2.82301239

