246
Energy =   -372.44944229 au
 Au      1.65402224      3.26948821      0.62904065
 Au     -3.09328224     -2.09937349      1.49517252
 Au     -0.92772843     -1.05440535      0.01189259
 Au      0.03018466     -0.04362095     -2.12487057
 Au     -0.94270495     -1.35974323      2.84480828
 Au      1.70154303      0.58482380      0.27022610
 Au     -0.57480042      1.81800382      0.29712777
 Au     -0.80212393     -3.53563569      1.29935760
  P      0.23750356     -0.17469673      4.56811760
  C     -0.88170214      0.51633993      5.82401846
  C     -0.75244838      0.27927492      7.19299739
  C     -1.65922886      0.82964818      8.08672624
  C     -2.70405841      1.62010650      7.62905429
  C     -2.84787663      1.85497670      6.26794197
  C     -1.94762629      1.30158945      5.37215451
  H     -3.40917752      2.04864490      8.33138777
  H      0.05764880     -0.33762519      7.56413031
  H     -2.07148170      1.47294148      4.30814505
  H     -3.66548185      2.46492699      5.90058669
  C      1.31440527      1.23330994      4.13214222
  C      2.59225865      0.96008533      3.63567474
  C      3.45618349      1.98824681      3.29420462
  C      3.04866385      3.30966319      3.42354710
  C      1.76578052      3.59236070      3.87838151
  C      0.90368807      2.56386148      4.22776935
  H     -0.08577161      2.80448416      4.59835591
  H      3.73006600      4.11628347      3.18225288
  H      1.44092723      4.62178470      3.97586463
  H      2.91826919     -0.06908055      3.54194274
  H     -1.54714805      0.63837498      9.14761803
  C      1.36613363     -1.27094950      5.47634556
  C      1.24700607     -2.65104965      5.30257673
  C      2.08174690     -3.52625122      5.97993000
  C      3.05148558     -3.03138878      6.84206088
  C      3.18382340     -1.66010187      7.02078175
  C      2.34995354     -0.78431069      6.34448936
  H      3.70455529     -3.71352940      7.37335259
  H      3.94118451     -1.27050497      7.69094959
  H      2.46458327      0.28457479      6.48438122
  H      4.45116495      1.75640475      2.93245140
  H      1.97526138     -4.59499591      5.83426741
  H      0.49190824     -3.03929968      4.62674526
  P      0.95313164      0.51699353     -4.23564451
  C      2.12266956     -0.74614070     -4.83459944
  C      1.72330906     -1.81630027     -5.63688059
  C      2.63045472     -2.80295197     -5.99497593
  C      3.94532150     -2.74072367     -5.55301038
  C      4.35126401     -1.68599115     -4.74622802
  C      3.44657131     -0.70111369     -4.38526088
  H      4.65100792     -3.51295153     -5.83541180
  H      0.70116495     -1.87551068     -5.99353355
  H      3.76885970      0.11789806     -3.75233389
  H      5.37415071     -1.63036683     -4.39106901
  C      1.91746225      2.05203121     -4.38287628
  C      1.77613638      3.03254154     -3.40013114
  C      2.52199362      4.19919299     -3.45624232
  C      3.42244080      4.40276634     -4.49252906
  C      3.56767756      3.43708420     -5.48011799
  C      2.82235909      2.26973024     -5.42726682
  H      2.95153089      1.51523477     -6.19480786
  H      4.00998769      5.31288125     -4.52784720
  H      4.26731599      3.59128318     -6.29326445
  H      1.07907957      2.87419657     -2.58347476
  H      2.30785721     -3.62300430     -6.62634593
  C     -0.31401279      0.58791106     -5.53686103
  C     -1.34853054     -0.35122473     -5.47087948
  C     -2.34986252     -0.36935493     -6.42837285
  C     -2.34334944      0.56571890     -7.45534892
  C     -1.33300593      1.51549840     -7.51847311
  C     -0.32233074      1.52765740     -6.56852006
  H     -3.12863992      0.55709751     -8.20191232
  H     -1.32886083      2.25154947     -8.31398646
  H      0.46195837      2.27334905     -6.62943742
  H      2.40503394      4.95145208     -2.68565738
  H     -3.13918493     -1.11026569     -6.36899238
  H     -1.36909920     -1.06486773     -4.65332563
  P      2.47480308      5.49455567      0.40734458
  C      2.78148422      6.47873809      1.90733683
  C      4.06501710      6.71437825      2.40463484
  C      4.23973721      7.39465783      3.60094949
  C      3.13968496      7.84123363      4.31909971
  C      1.85789037      7.60516721      3.83831123
  C      1.67891422      6.92288052      2.64577818
  H      3.27932141      8.37341727      5.25256880
  H      4.93186704      6.37432602      1.84959701
  H      0.67650248      6.74004244      2.27279154
  H      0.99460755      7.95205470      4.39446649
  C      1.34357573      6.53710723     -0.56290401
  C      0.36660659      5.91339795     -1.34259870
  C     -0.48755263      6.65789448     -2.14027558
  C     -0.38850656      8.04251840     -2.15649210
  C      0.56105148      8.67712140     -1.36668993
  C      1.42313668      7.93297959     -0.57594803
  H      2.15733544      8.43705213      0.04220699
  H     -1.05671592      8.62710479     -2.77784042
  H      0.63320976      9.75850568     -1.36814497
  H      0.27077619      4.83319878     -1.31273272
  H      5.24187465      7.57679225      3.97159501
  C      4.05963421      5.55223673     -0.48759666
  C      4.99373447      4.55465562     -0.19288150
  C      6.22379185      4.52678035     -0.83070877
  C      6.53035615      5.48479207     -1.78837772
  C      5.60501735      6.47183343     -2.09909335
  C      4.37911908      6.51040754     -1.45145862
  H      7.48866156      5.45974422     -2.29360189
  H      5.83968533      7.22051980     -2.84685853
  H      3.66768781      7.28976921     -1.69912143
  H     -1.23701466      6.15629896     -2.74210121
  H      6.94039893      3.75127859     -0.58568752
  H      4.74710570      3.79251561      0.53946493
  P      3.68465741     -0.74343310      0.05997760
  C      4.88848136      0.09041489     -1.02516697
  C      6.11870818     -0.49161707     -1.34848038
  C      6.98504082      0.13642195     -2.22848792
  C      6.63509702      1.34963654     -2.80782969
  C      5.41598421      1.93556534     -2.49838061
  C      4.55063083      1.31042274     -1.61240833
  H      7.31062815      1.83598061     -3.50162921
  H      6.39462634     -1.44519431     -0.91193697
  H      3.59847499      1.77277898     -1.37655840
  H      5.13433079      2.88071820     -2.94812988
  C      3.62745445     -2.38930838     -0.73156202
  C      2.75820563     -2.56498143     -1.80780675
  C      2.75495565     -3.74421951     -2.53225871
  C      3.60256304     -4.78322320     -2.17466068
  C      4.45534730     -4.63197719     -1.09073540
  C      4.47699925     -3.44144295     -0.37951291
  H      5.16159802     -3.33244640      0.45331810
  H      3.59715283     -5.70735317     -2.74059209
  H      5.11746801     -5.44001864     -0.80200355
  H      2.08616982     -1.76067769     -2.08920243
  H      7.93586602     -0.32547780     -2.46751394
  C      4.59301194     -1.07277200      1.60024988
  C      5.73208181     -0.35823997      1.97514082
  C      6.34491648     -0.60264692      3.19620688
  C      5.82947080     -1.56001054      4.05814456
  C      4.69012726     -2.26982940      3.70089709
  C      4.06749870     -2.01908331      2.48873173
  H      6.31238252     -1.75332339      5.00874523
  H      4.28179201     -3.01820559      4.37034427
  H      3.16927059     -2.56666379      2.21996361
  H      2.09546038     -3.84700980     -3.38503940
  H      7.23158891     -0.04369368      3.47190144
  H      6.14786271      0.38514545      1.30441269
  P     -2.75535740      2.74375311      0.11381443
  C     -2.84321453      4.56085349      0.03308459
  C     -3.62873114      5.25758996     -0.88722745
  C     -3.66935167      6.64415619     -0.86464351
  C     -2.93352100      7.35040806      0.07678663
  C     -2.14594737      6.66669480      0.99375254
  C     -2.09531697      5.28265564      0.96806019
  H     -2.96943692      8.43324782      0.09377609
  H     -4.20896817      4.71468866     -1.62441332
  H     -1.47219384      4.75058680      1.68010750
  H     -1.56733444      7.21470951      1.72859798
  C     -3.99497852      2.35061142      1.39116559
  C     -3.74633658      1.28790596      2.25902101
  C     -4.63881770      0.96889496      3.27170301
  C     -5.78925391      1.72836063      3.44199330
  C     -6.04663799      2.79304806      2.58736680
  C     -5.15933770      3.10268525      1.56804386
  H     -5.36630462      3.93862253      0.90939635
  H     -6.48231898      1.49185554      4.24056299
  H     -6.94094863      3.39064547      2.72023447
  H     -2.83621744      0.71023835      2.13993848
  H     -4.28272799      7.17383188     -1.58427869
  C     -3.48712802      2.18188625     -1.45020370
  C     -2.77758984      2.46038007     -2.62399187
  C     -3.22320930      1.98687082     -3.84613854
  C     -4.37177202      1.20775511     -3.91254737
  C     -5.07463106      0.91303179     -2.75294825
  C     -4.63639760      1.39598749     -1.52748056
  H     -4.71580074      0.83063463     -4.86860082
  H     -5.97509924      0.31105174     -2.80050277
  H     -5.19256525      1.16235742     -0.62652252
  H     -4.42760958      0.13770054      3.93463846
  H     -2.67190480      2.22307299     -4.74874356
  H     -1.87265519      3.05752560     -2.57238561
  P     -0.32172518     -5.57672421      0.23026555
  C     -1.73451900     -6.71560335      0.35983311
  C     -2.03201748     -7.68137805     -0.60571296
  C     -3.15025582     -8.48989995     -0.47005458
  C     -3.98963487     -8.34499722      0.62632623
  C     -3.70448501     -7.38902646      1.59181951
  C     -2.58783885     -6.57955757      1.45773603
  H     -4.86615573     -8.97402427      0.72700231
  H     -1.39327482     -7.79656997     -1.47373442
  H     -2.37401947     -5.82649677      2.20924254
  H     -4.35742145     -7.26753418      2.44842074
  C      1.13255011     -6.48501817      0.82707965
  C      2.22731228     -5.72782619      1.25366277
  C      3.37524950     -6.34867558      1.71762580
  C      3.44154249     -7.73519112      1.76664560
  C      2.35563928     -8.49604476      1.35555262
  C      1.20468234     -7.87824072      0.88977306
  H      0.35651955     -8.47873817      0.58104675
  H      4.33797882     -8.22205839      2.13209898
  H      2.40245468     -9.57787325      1.40022967
  H      2.17329335     -4.64383340      1.22010154
  H     -3.36759442     -9.23450818     -1.22695514
  C     -0.07634177     -5.44596356     -1.57025727
  C     -0.63571898     -4.36118902     -2.24633504
  C     -0.52367159     -4.25139396     -3.62355357
  C      0.13523559     -5.23589773     -4.34840684
  C      0.70062837     -6.31805541     -3.68599120
  C      0.60555831     -6.41940031     -2.30615636
  H      0.21338362     -5.15614084     -5.42620474
  H      1.22232015     -7.08544277     -4.24575794
  H      1.06887843     -7.25653747     -1.79644738
  H      4.21650176     -5.74910268      2.04656236
  H     -0.95251908     -3.39495954     -4.13109655
  H     -1.16287400     -3.59523114     -1.68778082
  P     -5.10952799     -2.76292284      0.44346515
  C     -6.42162461     -1.59268591     -0.03127843
  C     -7.16569224     -1.71686985     -1.20747228
  C     -8.16878833     -0.80447549     -1.49981765
  C     -8.44290955      0.23950592     -0.62632070
  C     -7.71203154      0.36829803      0.54687852
  C     -6.70858617     -0.54129370      0.84217855
  H     -9.22613769      0.95105523     -0.85941072
  H     -6.95963934     -2.52573491     -1.89872340
  H     -6.13922509     -0.44012560      1.75966453
  H     -7.92051985      1.17997991      1.23443527
  C     -5.99673379     -4.07400830      1.33497071
  C     -5.54417324     -4.46380503      2.59626952
  C     -6.20408245     -5.45401453      3.30866978
  C     -7.32577568     -6.06656650      2.76681018
  C     -7.78722087     -5.68443106      1.51347608
  C     -7.13237534     -4.69276891      0.80175301
  H     -7.50297706     -4.39299863     -0.17226009
  H     -7.84351570     -6.83910743      3.32293403
  H     -8.66495111     -6.15856455      1.09001173
  H     -4.66745515     -3.98434317      3.01963109
  H     -8.74101924     -0.91315662     -2.41378232
  C     -4.61874553     -3.52412787     -1.13307773
  C     -4.21932433     -2.68894244     -2.18215957
  C     -3.79428313     -3.22599214     -3.38577644
  C     -3.73350787     -4.60452276     -3.55105787
  C     -4.09145115     -5.44112640     -2.50364716
  C     -4.53093451     -4.90660353     -1.30168817
  H     -3.40055125     -5.02433120     -4.49290127
  H     -4.03157175     -6.51711495     -2.62098715
  H     -4.81391240     -5.56897834     -0.49128342
  H     -5.84567620     -5.74149228      4.29027333
  H     -3.51005628     -2.56653569     -4.19812983
  H     -4.25317716     -1.61157831     -2.05472201
