246
Energy =   -372.45485477 au
 Au      1.37435683     -0.36585357      1.29464049
 Au     -1.46831462     -0.56080050      0.69934492
 Au      3.08888103      1.61828360     -0.11425087
 Au      0.42891603      0.50686736     -1.03107555
 Au      1.09413662      2.64817002      1.10210431
 Au     -1.65473345      2.27335710      1.20201377
 Au     -3.43099939      1.25772873     -0.31741731
 Au      0.32230738     -2.29842853     -0.43559714
  P     -5.02848884      0.63222236     -1.95050347
  C     -6.74150840      0.48052547     -1.36345570
  C     -7.60918536      1.57500925     -1.36188955
  C     -8.86784454      1.47101724     -0.78989971
  C     -9.27332458      0.28060305     -0.20189557
  C     -8.41522006     -0.81083862     -0.19039156
  C     -7.15659631     -0.71165016     -0.76153275
  H    -10.25672576      0.20324630      0.24646642
  H     -7.30063803      2.51001400     -1.81611530
  H     -6.49290488     -1.56861931     -0.75543663
  H     -8.72354118     -1.74430581      0.26677337
  C     -4.69220080     -0.94663701     -2.78793791
  C     -3.40421278     -1.47506714     -2.69179443
  C     -3.07511949     -2.66765638     -3.31728881
  C     -4.03629613     -3.35326259     -4.04797979
  C     -5.32506461     -2.84407496     -4.14352359
  C     -5.65404903     -1.65111233     -3.51758610
  H     -6.66667340     -1.27051512     -3.58522786
  H     -3.78159579     -4.28709318     -4.53537423
  H     -6.07918046     -3.38061998     -4.70730434
  H     -2.65472789     -0.94331801     -2.11526961
  H     -9.53451850      2.32545741     -0.80292356
  C     -5.12312802      1.87107488     -3.27913025
  C     -4.85998795      3.19974130     -2.93185245
  C     -4.92959175      4.20714437     -3.88113323
  C     -5.26036098      3.89978869     -5.19401298
  C     -5.51820869      2.58316954     -5.55123720
  C     -5.44769774      1.57341024     -4.60324491
  H     -5.31637641      4.68542245     -5.93815551
  H     -5.77699752      2.33912081     -6.57506578
  H     -5.64316113      0.54881646     -4.89800483
  H     -2.06983818     -3.06456071     -3.22875199
  H     -4.72626919      5.23272492     -3.59491905
  H     -4.60405693      3.43978779     -1.90496892
  P     -3.17973828     -1.68402725      2.00422626
  C     -2.59386934     -2.83273661      3.29203807
  C     -3.29525801     -3.06976865      4.47679933
  C     -2.84615018     -4.02737607      5.37372926
  C     -1.69827374     -4.76024273      5.10056248
  C     -0.99172599     -4.52910844      3.92797204
  C     -1.43729117     -3.57107023      3.03162158
  H     -1.35346913     -5.50974031      5.80301696
  H     -4.19447667     -2.50549964      4.69611971
  H     -0.88262907     -3.39108402      2.11558989
  H     -0.09214989     -5.09381515      3.71091195
  C     -4.49916100     -2.67143034      1.22260676
  C     -4.27714331     -3.21780508     -0.04110586
  C     -5.24611060     -4.00048110     -0.65167932
  C     -6.44362844     -4.25854327      0.00080300
  C     -6.66963981     -3.72962006      1.26563841
  C     -5.70706646     -2.93986544      1.87383252
  H     -5.89326886     -2.52913369      2.85968642
  H     -7.19957801     -4.87235367     -0.47444560
  H     -7.60021627     -3.93434760      1.78196270
  H     -3.33860843     -3.02557725     -0.54970796
  H     -3.39849025     -4.20464148      6.28914362
  C     -4.05678298     -0.33869884      2.84566362
  C     -3.48680903      0.27924268      3.96180102
  C     -4.00586665      1.46660677      4.45492453
  C     -5.09498016      2.06318931      3.83375005
  C     -5.67197477      1.46007962      2.72428042
  C     -5.15434865      0.27254480      2.22937768
  H     -5.48932244      2.99951935      4.21075397
  H     -6.52378436      1.91829394      2.23491677
  H     -5.61232287     -0.19016958      1.36237551
  H     -5.06293001     -4.40930000     -1.63874652
  H     -3.54958078      1.93306988      5.32069104
  H     -2.62774076     -0.17362021      4.44378330
  P      0.23751965      1.74946866     -3.07271878
  C     -0.99166638      1.40462302     -4.37620732
  C     -1.48753872      2.38503256     -5.23974941
  C     -2.34590252      2.03812560     -6.27101610
  C     -2.71406131      0.71287534     -6.46255321
  C     -2.21831226     -0.26971692     -5.61762476
  C     -1.36349257      0.07544815     -4.58252305
  H     -3.38266565      0.44658999     -7.27260573
  H     -1.19743660      3.42145579     -5.11219317
  H     -0.97078975     -0.69362783     -3.92641102
  H     -2.49604814     -1.30737791     -5.76290818
  C      1.75928082      1.72159814     -4.07266111
  C      2.59563323      0.60720801     -3.97857383
  C      3.69425928      0.47780713     -4.81463734
  C      3.97875881      1.46659930     -5.74576457
  C      3.16204204      2.58644649     -5.83757292
  C      2.05506980      2.71221151     -5.01311856
  H      1.41419984      3.58242856     -5.10024968
  H      4.83808559      1.36640920     -6.39817645
  H      3.38272259      3.36162587     -6.56208100
  H      2.37964393     -0.16415112     -3.24630553
  H     -2.72616169      2.80823886     -6.93201722
  C     -0.02357325      3.48514069     -2.61223485
  C     -1.31548245      4.00542564     -2.49811337
  C     -1.51727568      5.29418070     -2.02746366
  C     -0.43631274      6.06880270     -1.62679287
  C      0.84924559      5.54906196     -1.69968573
  C      1.05421792      4.26955013     -2.19114643
  H     -0.59577701      7.07417843     -1.25550234
  H      1.69568631      6.14392819     -1.37630294
  H      2.06184899      3.87397041     -2.25587820
  H      4.32931405     -0.39716330     -4.73726140
  H     -2.52310199      5.69570373     -1.97888395
  H     -2.16865401      3.40078159     -2.78609780
  P      2.64879779     -0.68745833      3.29364706
  C      1.76943942     -1.47714301      4.67673322
  C      2.39884174     -2.27026579      5.63826113
  C      1.67307089     -2.80162878      6.69327813
  C      0.31479030     -2.54121989      6.80908571
  C     -0.32342447     -1.76444198      5.85168252
  C      0.39534298     -1.24895453      4.78505605
  H     -0.24918289     -2.94960810      7.63931449
  H      3.46062214     -2.47432033      5.56252648
  H     -0.10895972     -0.66248304      4.02365268
  H     -1.38727694     -1.57225508      5.92937335
  C      3.24814416      0.87898630      4.00294023
  C      4.16796349      1.62502222      3.25966134
  C      4.61383818      2.85483240      3.71338766
  C      4.14756338      3.36073610      4.92069233
  C      3.23732289      2.62737077      5.66779011
  C      2.78490514      1.39796593      5.21210999
  H      2.06983078      0.83814056      5.80338690
  H      4.49713045      4.32176934      5.27879419
  H      2.87218774      3.01496910      6.61196484
  H      4.54514254      1.22895319      2.32291796
  H      2.17324711     -3.41747053      7.43150885
  C      4.17938430     -1.64680445      3.08864310
  C      4.25865525     -2.54741801      2.02635852
  C      5.38616632     -3.33094216      1.83891661
  C      6.45252459     -3.22706519      2.72195871
  C      6.39338743     -2.32262611      3.77468295
  C      5.26967244     -1.53147634      3.95652634
  H      7.33235922     -3.84473825      2.58589355
  H      7.22925317     -2.23100736      4.45838362
  H      5.23981914     -0.81708639      4.77122848
  H      5.32884430      3.41842637      3.12556915
  H      5.43088889     -4.02051579      1.00364368
  H      3.42246203     -2.62641350      1.34144554
  P      5.14150411      0.85163839     -1.05870297
  C      5.90754619      1.97733179     -2.26302285
  C      7.27633244      1.95910603     -2.55032367
  C      7.80948176      2.84603696     -3.47215757
  C      6.99087410      3.76870550     -4.11038814
  C      5.63445394      3.80807196     -3.81864523
  C      5.09834487      2.91892368     -2.90079996
  H      7.41218099      4.46294174     -4.82781843
  H      7.92708580      1.25885678     -2.03883714
  H      4.03878974      2.95150867     -2.66980844
  H      4.99146112      4.53295783     -4.30467121
  C      5.13236394     -0.79473976     -1.84073986
  C      4.19779699     -1.72099615     -1.37445206
  C      4.16932093     -3.01286829     -1.87223028
  C      5.05561978     -3.39154884     -2.87061338
  C      5.97029200     -2.47189492     -3.36486512
  C      6.01490214     -1.18422661     -2.85074761
  H      6.74115184     -0.47903492     -3.23757977
  H      5.02764363     -4.39987593     -3.26673157
  H      6.65930367     -2.75949309     -4.15041218
  H      3.48982844     -1.42130053     -0.60868081
  H      8.87110171      2.82056599     -3.68877961
  C      6.44332372      0.71153898      0.20603039
  C      6.77420139      1.87552730      0.90941157
  C      7.73357481      1.84806758      1.90771914
  C      8.37540794      0.65647334      2.22104228
  C      8.05231254     -0.50281625      1.53149863
  C      7.08765395     -0.48082284      0.53451530
  H      9.12793307      0.63364960      3.00022409
  H      8.55449671     -1.43355173      1.76856991
  H      6.83953672     -1.39524732      0.00805464
  H      3.45066350     -3.72436422     -1.48219974
  H      7.98386018      2.75826548      2.44026505
  H      6.27907241      2.80839428      0.65955009
  P      0.52013375     -4.41271376     -1.53992280
  C      1.31003849     -4.20511374     -3.16713184
  C      2.09988878     -5.17005203     -3.79608840
  C      2.68599417     -4.90378294     -5.02491078
  C      2.49389616     -3.67551587     -5.64322466
  C      1.71166379     -2.70749693     -5.02779812
  C      1.13079192     -2.97100757     -3.79853159
  H      2.95652928     -3.47131786     -6.60156522
  H      2.26686940     -6.12973388     -3.32148910
  H      0.53211280     -2.20927304     -3.30962926
  H      1.55906231     -1.74404790     -5.50104899
  C     -1.01692321     -5.32919742     -1.88258685
  C     -1.85752910     -5.59721452     -0.79748125
  C     -3.02603709     -6.31955438     -0.97488257
  C     -3.37908846     -6.77077749     -2.24093890
  C     -2.55837033     -6.49756195     -3.32638078
  C     -1.38263717     -5.78107369     -3.15143845
  H     -0.74313240     -5.57992767     -4.00316666
  H     -4.29227959     -7.33738737     -2.37937974
  H     -2.82706004     -6.85301616     -4.31442511
  H     -1.58459025     -5.24353659      0.19199496
  H      3.29711001     -5.66144226     -5.50144480
  C      1.48991992     -5.66049297     -0.63982147
  C      2.21591493     -5.24938329      0.47925962
  C      2.97075354     -6.15387430      1.20877205
  C      3.00411889     -7.48884472      0.83000999
  C      2.26700209     -7.91581906     -0.26699629
  C      1.50860380     -7.01271420     -0.99534105
  H      3.59449578     -8.19920975      1.39660573
  H      2.27778330     -8.96075474     -0.55430348
  H      0.91638776     -7.36080219     -1.83408190
  H     -3.66309019     -6.53073707     -0.12381577
  H      3.52767413     -5.81602685      2.07546596
  H      2.17109638     -4.20900332      0.78248959
  P     -0.40987236      4.12141269      2.57389285
  C     -2.07486222      4.87987080      2.56323146
  C     -2.82804681      5.09530423      3.71717443
  C     -4.11230195      5.61235145      3.62840376
  C     -4.66436430      5.91389253      2.39080055
  C     -3.92515811      5.70052209      1.23518454
  C     -2.64270497      5.18315052      1.32115961
  H     -5.66986700      6.31259745      2.32708041
  H     -2.41292237      4.86053021      4.69011760
  H     -2.06564509      5.01478151      0.41939072
  H     -4.34849112      5.93027899      0.26396216
  C      0.71322821      5.54250892      2.36021132
  C      2.06919746      5.34728656      2.64420260
  C      2.99101608      6.35375025      2.41059674
  C      2.57479894      7.56736324      1.87869196
  C      1.23246740      7.77009667      1.59064778
  C      0.30576513      6.76497361      1.82663290
  H     -0.73972489      6.93740657      1.59909590
  H      3.29595494      8.35383051      1.69035374
  H      0.90146325      8.71693288      1.18005275
  H      2.39628955      4.40258552      3.06407519
  H     -4.68397199      5.78061883      4.53373518
  C     -0.20102003      3.63304585      4.31076182
  C     -0.54197439      2.32907464      4.67268679
  C     -0.48617772      1.92588365      5.99771929
  C     -0.07534554      2.81927655      6.97814267
  C      0.28424123      4.11396133      6.62703208
  C      0.22042275      4.52192726      5.30337120
  H     -0.03364701      2.50537218      8.01436604
  H      0.60657336      4.81379711      7.38902629
  H      0.49482794      5.53636525      5.03839699
  H      4.03736464      6.18810690      2.64050331
  H     -0.76358601      0.91363419      6.26737467
  H     -0.85915878      1.63208888      3.90365334
