246
Energy =   -372.44570736 au
 Au      0.45577035      3.51507994     -1.63656873
 Au      1.79952981      1.63093435     -3.03500105
 Au      0.57626218      0.85052963     -0.62500689
 Au     -0.80344185     -2.31441671      2.86413490
 Au     -2.83371197     -1.82090016      1.36383337
 Au     -0.26872843     -1.66200345      0.05231102
 Au     -0.86705922      0.32610025      1.64352351
 Au      2.77818534      2.66408539     -0.76860473
  P      0.72754499     -3.05690884      4.54595488
  C     -0.06966114     -4.34551416      5.54682499
  C      0.27646457     -5.69463450      5.44688224
  C     -0.43500423     -6.65497799      6.15068491
  C     -1.50287766     -6.28413766      6.95559974
  C     -1.86379196     -4.94628634      7.05250199
  C     -1.15871210     -3.98512889      6.34737379
  H     -2.05639712     -7.03671844      7.50458738
  H      1.10924443     -5.99496613      4.82118992
  H     -1.44815555     -2.94158988      6.41603804
  H     -2.70005830     -4.65121856      7.67581296
  C      1.25266461     -1.79567187      5.75348314
  C      1.55824005     -0.52202483      5.26808060
  C      2.04958386      0.46025328      6.11332098
  C      2.21184841      0.19313821      7.46627194
  C      1.88059381     -1.05861708      7.96662835
  C      1.41264064     -2.05045677      7.11745596
  H      1.16573080     -3.02665259      7.51845390
  H      2.59104963      0.96169703      8.12945710
  H      1.99609947     -1.26879590      9.02357106
  H      1.41118892     -0.30188033      4.21550619
  H     -0.15212635     -7.69812056      6.06865855
  C      2.31369614     -3.82437935      4.06443937
  C      2.52684382     -4.19083197      2.73433091
  C      3.71380877     -4.79531159      2.34890313
  C      4.71183726     -5.02747679      3.28409049
  C      4.51686747     -4.65752146      4.60839409
  C      3.32707634     -4.06272408      4.99801299
  H      5.64101196     -5.49613346      2.98178109
  H      5.29349996     -4.83592142      5.34298084
  H      3.18157428     -3.78365598      6.03556701
  H      2.30507168      1.43525986      5.71430374
  H      3.85922291     -5.08460466      1.31469191
  H      1.75619479     -4.00148547      1.99552301
  P      0.41769605     -3.68153383     -1.05284229
  C      2.24090577     -3.77508521     -1.08314145
  C      2.94450856     -4.94626145     -1.37833713
  C      4.33053059     -4.96464478     -1.33822945
  C      5.03795859     -3.81844564     -0.99538172
  C      4.35067162     -2.64775668     -0.70390581
  C      2.96624648     -2.62955969     -0.75305477
  H      6.12051479     -3.83976895     -0.94920831
  H      2.40678133     -5.85230953     -1.63248343
  H      2.43233951     -1.71407089     -0.52703467
  H      4.89221039     -1.74842706     -0.43262323
  C     -0.07549949     -3.91304360     -2.79063551
  C     -1.41941592     -4.19867931     -3.05578995
  C     -1.85895916     -4.38328111     -4.35620798
  C     -0.96466862     -4.27085556     -5.41372053
  C      0.36474137     -3.96517379     -5.16258427
  C      0.80915996     -3.78160711     -3.86116381
  H      1.85161184     -3.54816740     -3.67542112
  H     -1.30582477     -4.41759141     -6.43167093
  H      1.06488507     -3.87288003     -5.98469283
  H     -2.11921888     -4.28940774     -2.23120797
  H      4.86171176     -5.88065048     -1.56930298
  C     -0.06550880     -5.28718469     -0.32350037
  C     -0.39376054     -5.35223941      1.03042733
  C     -0.72434635     -6.55448535      1.63358618
  C     -0.74062747     -7.72140934      0.88276171
  C     -0.43315076     -7.67281315     -0.47028192
  C     -0.09855825     -6.46923334     -1.07125987
  H     -0.99938600     -8.66492584      1.34847475
  H     -0.45396255     -8.57884264     -1.06476406
  H      0.12670900     -6.44762159     -2.13125264
  H     -2.90049010     -4.61615403     -4.54547485
  H     -0.97115668     -6.57620171      2.68920062
  H     -0.40142859     -4.44318899      1.62185064
  P     -4.89347254     -1.50708311      0.19620860
  C     -4.78826328     -0.65619276     -1.41460594
  C     -5.76038395     -0.77821524     -2.41065846
  C     -5.65237622     -0.05694940     -3.59055276
  C     -4.57354789      0.79279751     -3.79505009
  C     -3.59047287      0.90081135     -2.82153258
  C     -3.69404171      0.17729700     -1.64521864
  H     -4.49014220      1.36146933     -4.71431415
  H     -6.60171639     -1.44634629     -2.26537097
  H     -2.91767344      0.26011214     -0.89263102
  H     -2.73712648      1.54996019     -2.97616210
  C     -6.06623483     -0.48218559      1.13988103
  C     -5.87047736     -0.38669479      2.51957254
  C     -6.71080776      0.38449948      3.30643484
  C     -7.76344270      1.07624500      2.72276556
  C     -7.97040932      0.99080373      1.35197858
  C     -7.12820720      0.21979362      0.56361041
  H     -7.29399604      0.17120424     -0.50653255
  H     -8.42221752      1.68122450      3.33450186
  H     -8.79359529      1.52564289      0.89255372
  H     -5.04772456     -0.92658616      2.97604749
  H     -6.41618884     -0.15768057     -4.35287251
  C     -5.80006653     -3.03114038     -0.20737085
  C     -5.04601740     -4.09248221     -0.71834010
  C     -5.65190056     -5.29178198     -1.05285083
  C     -7.01986748     -5.45114620     -0.87075863
  C     -7.77539177     -4.40881497     -0.35257040
  C     -7.17218392     -3.20450179     -0.02062470
  H     -7.49496368     -6.39050545     -1.12790777
  H     -8.84180824     -4.53243149     -0.20381330
  H     -7.77016742     -2.39810121      0.38826949
  H     -6.54434973      0.44424006      4.37587712
  H     -5.05570106     -6.10509694     -1.45072646
  H     -3.97492067     -3.97020662     -0.85049523
  P     -1.24221525      1.88756907      3.41909293
  C     -2.56471646      3.13541149      3.27390698
  C     -3.86907189      2.87104597      3.69869360
  C     -4.87830938      3.80073707      3.50007616
  C     -4.60140979      5.01008051      2.87759935
  C     -3.31030615      5.28106381      2.44548636
  C     -2.30228100      4.34760583      2.62716748
  H     -5.38915813      5.73897027      2.72854360
  H     -4.09919847      1.93548227      4.19556619
  H     -1.30048752      4.56394942      2.27181560
  H     -3.08591661      6.22494587      1.96205635
  C      0.22855259      2.88455199      3.80954166
  C      1.45699577      2.51479910      3.25904351
  C      2.60675000      3.23571103      3.54311482
  C      2.54541495      4.34334361      4.37714352
  C      1.32878299      4.72681390      4.92551941
  C      0.17886404      4.00507625      4.64607552
  H     -0.76731713      4.31730810      5.07324156
  H      3.44418743      4.90770094      4.59675147
  H      1.27449538      5.59253245      5.57524502
  H      1.51088168      1.65403190      2.60071415
  H     -5.88459469      3.57825705      3.83634296
  C     -1.64741621      1.02390944      4.97477632
  C     -2.59214656     -0.00497197      4.91612425
  C     -2.94099882     -0.71883465      6.05140048
  C     -2.33518318     -0.42603945      7.26658338
  C     -1.38831453      0.58587503      7.33634717
  C     -1.04958284      1.30954679      6.20253354
  H     -2.60126664     -0.98521392      8.15570285
  H     -0.90638685      0.81511940      8.27974137
  H     -0.30820425      2.09624240      6.27648666
  H      3.55346865      2.93151005      3.11137826
  H     -3.68565461     -1.50356841      5.98523232
  H     -3.05656592     -0.24983276      3.96742768
  P     -1.55334512      4.66839388     -2.17057188
  C     -1.55923236      6.47468871     -1.98775963
  C     -0.73752793      7.22560004     -2.83637453
  C     -0.65481336      8.60113260     -2.69812088
  C     -1.37877705      9.24571827     -1.70313605
  C     -2.18378681      8.50868093     -0.84623964
  C     -2.27207176      7.13148818     -0.98312250
  H     -1.31275042     10.32184132     -1.59500136
  H     -0.16732064      6.72432290     -3.61174496
  H     -2.90474071      6.56409227     -0.31007323
  H     -2.74781961      9.00647271     -0.06593854
  C     -3.04144877      4.09231215     -1.28847992
  C     -2.92164298      3.10076964     -0.31527805
  C     -4.04255801      2.60618806      0.33400234
  C     -5.29781299      3.11255415      0.03334869
  C     -5.43129940      4.10379102     -0.92993966
  C     -4.31448142      4.58597966     -1.59204356
  H     -4.43073692      5.35084458     -2.35142235
  H     -6.17281928      2.73417009      0.54796921
  H     -6.41118855      4.50013083     -1.16920321
  H     -1.94062692      2.70998570     -0.06711154
  H     -0.02188765      9.17195918     -3.36761116
  C     -2.02964801      4.40517165     -3.91153424
  C     -1.64281449      3.21851085     -4.53880766
  C     -2.06633404      2.92582464     -5.82629612
  C     -2.86539677      3.82770687     -6.51600843
  C     -3.23196564      5.02372111     -5.91481964
  C     -2.82250705      5.31043118     -4.62149554
  H     -3.19529514      3.60038335     -7.52282293
  H     -3.84516138      5.73709070     -6.45297253
  H     -3.11510553      6.24836911     -4.16377830
  H     -3.93325823      1.82739270      1.08072922
  H     -1.77234306      1.99215859     -6.29202268
  H     -1.00004272      2.51965850     -4.01271317
  P      1.83238805      0.44913161     -5.06045263
  C      0.16988059     -0.21054973     -5.39667689
  C     -0.39155177     -0.26834561     -6.67375780
  C     -1.67360093     -0.76934473     -6.85290870
  C     -2.40818609     -1.21851324     -5.76433088
  C     -1.85519635     -1.17197275     -4.49120264
  C     -0.57827233     -0.66955010     -4.30972463
  H     -3.41091755     -1.60449398     -5.90533825
  H      0.17230781      0.08490282     -7.52929662
  H     -0.15229477     -0.63052336     -3.31248311
  H     -2.41897461     -1.52745647     -3.63683343
  C      2.90806557     -1.01139546     -5.15316977
  C      3.78191076     -1.28787793     -4.10142172
  C      4.62380383     -2.38826892     -4.15801839
  C      4.59556668     -3.23113621     -5.25965370
  C      3.72388966     -2.96970570     -6.30935596
  C      2.88425418     -1.86816465     -6.25897987
  H      2.20412116     -1.66981663     -7.07988939
  H      5.25313703     -4.09139171     -5.30160530
  H      3.70027348     -3.62431800     -7.17267509
  H      3.80452224     -0.63307247     -3.23635973
  H     -2.09923199     -0.80727787     -7.84882600
  C      2.24221557      1.45877609     -6.51100179
  C      1.46663913      2.60116267     -6.74097498
  C      1.75011294      3.44453827     -7.80158038
  C      2.82410998      3.17050657     -8.63907370
  C      3.61435172      2.05420127     -8.40580636
  C      3.33118422      1.20420980     -7.34683294
  H      3.04808613      3.83127369     -9.46807357
  H      4.45916727      1.84146936     -9.05049088
  H      3.96010754      0.33892358     -7.17265258
  H      5.30455201     -2.58542614     -3.33807338
  H      1.13463645      4.32042421     -7.97167362
  H      0.63573353      2.82609424     -6.08061945
  P      4.87011667      2.14347214      0.24554342
  C      5.96018729      3.47930403      0.81589126
  C      5.35981809      4.65347964      1.27969090
  C      6.13482264      5.70261213      1.74693656
  C      7.51918277      5.59589734      1.74701632
  C      8.12560564      4.43871998      1.27744568
  C      7.35419374      3.38433234      0.81352288
  H      8.12603918      6.41802203      2.10765064
  H      4.27792375      4.74105725      1.26863884
  H      7.83501198      2.48655791      0.44198106
  H      9.20613504      4.35583465      1.27045433
  C      5.87125180      1.15839050     -0.91570871
  C      5.73836032      1.41036475     -2.28327524
  C      6.44504543      0.66571766     -3.21429278
  C      7.29570820     -0.34716376     -2.79126280
  C      7.43892077     -0.60662485     -1.43507318
  C      6.73191228      0.13775368     -0.50202890
  H      6.84892099     -0.07670575      0.55409307
  H      7.84674976     -0.93229244     -3.51799629
  H      8.10359456     -1.39413447     -1.09921822
  H      5.07249600      2.19873486     -2.61823817
  H      5.65755284      6.60698451      2.10594476
  C      4.72622082      1.01396771      1.66676819
  C      3.71337090      0.05422359      1.61400960
  C      3.57142418     -0.88095836      2.62321034
  C      4.42894587     -0.85860756      3.71551859
  C      5.42346479      0.10565365      3.79229015
  C      5.57730631      1.03518865      2.77354579
  H      4.31618885     -1.58958677      4.50778544
  H      6.08876265      0.13245561      4.64742978
  H      6.36245630      1.77971808      2.83791256
  H      6.32817202      0.87367988     -4.27167059
  H      2.79038600     -1.62890326      2.55259540
  H      3.03244401      0.04500027      0.76952240
