246
Energy =   -372.44858171 au
 Au      0.02390196      2.75309081      1.34400160
 Au     -1.88330710      2.45449364     -0.44362104
 Au     -0.35409307      0.07238495      2.85475026
 Au     -0.55532232     -2.20263778      0.93518339
 Au      1.82426163     -0.88458973      1.69160024
 Au     -0.07614586      1.13903941     -2.37506006
 Au      0.15168728     -1.57498906     -1.78802536
 Au     -0.17349520      0.31778461      0.09431683
  P      0.51791878      2.27171663     -4.35260663
  C     -0.22805473      1.70626445     -5.91080937
  C     -0.67824794      2.57506377     -6.90654206
  C     -1.24254339      2.07277605     -8.06983778
  C     -1.36197321      0.70264075     -8.25588076
  C     -0.92153621     -0.17085479     -7.26944075
  C     -0.36625726      0.32798173     -6.10206517
  H     -1.80140230      0.31422276     -9.16706664
  H     -0.58840918      3.64652479     -6.76949464
  H     -0.03657391     -0.35673339     -5.32747357
  H     -1.01501177     -1.24260447     -7.40550022
  C      2.30886776      2.14306108     -4.63482155
  C      3.12796386      1.84427978     -3.54316807
  C      4.49768409      1.70924249     -3.70118424
  C      5.06891189      1.86725094     -4.95688868
  C      4.26494265      2.16196974     -6.05089869
  C      2.89369670      2.29879394     -5.89411718
  H      2.27165540      2.52252100     -6.75343153
  H      6.13947935      1.75743912     -5.08370287
  H      4.70807752      2.28526692     -7.03219985
  H      2.68084370      1.71261620     -2.56306226
  H     -1.58881992      2.75702020     -8.83568262
  C      0.16825625      4.05108708     -4.26002145
  C     -1.14190166      4.43506669     -3.95345064
  C     -1.46287432      5.77079541     -3.78146480
  C     -0.47712543      6.74257951     -3.89988610
  C      0.82712213      6.37224085     -4.19537540
  C      1.15149891      5.03507464     -4.37349249
  H     -0.72655009      7.78762301     -3.75878296
  H      1.59918753      7.12740023     -4.28758802
  H      2.17277839      4.75497757     -4.60514266
  H      5.11906236      1.47577343     -2.84367289
  H     -2.48341788      6.05332311     -3.54851477
  H     -1.91174514      3.67634928     -3.84906909
  P      0.46663167     -3.28775202     -3.42730467
  C      0.62837626     -4.98775234     -2.79419036
  C      0.31126374     -6.12585764     -3.53976353
  C      0.48836256     -7.38948153     -2.99702092
  C      0.96773901     -7.53500458     -1.70205066
  C      1.26245737     -6.41042883     -0.94318284
  C      1.09450575     -5.14701117     -1.48754014
  H      1.09974619     -8.52422851     -1.27996150
  H     -0.08700301     -6.02327669     -4.54281433
  H      1.32537998     -4.26832888     -0.89365640
  H      1.61671863     -6.51571838      0.07620182
  C      1.87372597     -3.07774775     -4.56513337
  C      2.34579280     -1.77985195     -4.77646545
  C      3.37554101     -1.53758631     -5.67220620
  C      3.96091192     -2.59319000     -6.35885521
  C      3.51844991     -3.89038335     -6.13780424
  C      2.48253809     -4.13353566     -5.24816938
  H      2.15189504     -5.15172696     -5.07906662
  H      4.76587531     -2.40514108     -7.05939887
  H      3.97960738     -4.71903901     -6.66239851
  H      1.90684179     -0.95447227     -4.22533925
  H      0.24464946     -8.26539459     -3.58687612
  C     -0.97140263     -3.35540672     -4.54226516
  C     -2.20524805     -2.96085076     -4.01842681
  C     -3.34938732     -2.98692805     -4.79968988
  C     -3.27362663     -3.39601005     -6.12477038
  C     -2.05071647     -3.77458581     -6.66219932
  C     -0.90575447     -3.75545502     -5.87876564
  H     -4.16602473     -3.41347170     -6.73922598
  H     -1.98658324     -4.08981307     -7.69717385
  H      0.04455103     -4.04570477     -6.31210476
  H      3.72366867     -0.52377913     -5.83279643
  H     -4.29894327     -2.68099680     -4.37576797
  H     -2.26180335     -2.62278189     -2.98875815
  P      4.07306062     -1.45011059      1.18282032
  C      5.05598961      0.03845094      0.82253895
  C      6.40948532      0.17518725      1.13391300
  C      7.09435107      1.33360580      0.79672106
  C      6.44003888      2.36844514      0.14256018
  C      5.09103134      2.24698257     -0.16411762
  C      4.40254861      1.09455541      0.18041364
  H      6.97691899      3.27162202     -0.12247022
  H      6.93185357     -0.62364446      1.64713695
  H      3.34390461      1.01008560     -0.04509360
  H      4.57104986      3.05651508     -0.66268848
  C      4.31345130     -2.46500390     -0.31200046
  C      4.11044532     -3.84638090     -0.23242986
  C      4.26969086     -4.64717449     -1.35239593
  C      4.62149135     -4.08020298     -2.56997108
  C      4.80324003     -2.70766607     -2.66412231
  C      4.64249131     -1.90312174     -1.54690964
  H      4.79023949     -0.83261600     -1.63428509
  H      4.75201073     -4.70694894     -3.44426918
  H      5.07688824     -2.25814372     -3.61171871
  H      3.84264838     -4.29661608      0.71767567
  H      8.14524129      1.42614864      1.04481998
  C      4.96387587     -2.38280909      2.45919772
  C      4.39316682     -2.47209312      3.73076656
  C      5.02455011     -3.17830994      4.74252872
  C      6.23589992     -3.80940535      4.49421284
  C      6.80743646     -3.73925210      3.23051265
  C      6.17705599     -3.03569602      2.21632507
  H      6.73124197     -4.36247624      5.28346759
  H      7.74831127     -4.23900220      3.03157712
  H      6.62003384     -3.00382852      1.22737596
  H      4.12209805     -5.71793994     -1.27286044
  H      4.56849081     -3.23825043      5.72397576
  H      3.44185114     -1.98597244      3.92047449
  P     -4.02400281      2.63136796     -1.50401993
  C     -4.67322008      4.30338574     -1.79076155
  C     -4.92471446      4.81062044     -3.06779386
  C     -5.32932887      6.12757725     -3.23323516
  C     -5.48047671      6.95680529     -2.13068088
  C     -5.21763171      6.46798687     -0.85735749
  C     -4.80856446      5.15558676     -0.68938128
  H     -5.79852926      7.98415507     -2.26289818
  H     -4.81067627      4.17287666     -3.93693765
  H     -4.59170556      4.78125591      0.30603054
  H     -5.32758445      7.11263635      0.00703803
  C     -5.21152550      1.84074371     -0.37022197
  C     -4.79840214      0.65402860      0.24233771
  C     -5.65594307     -0.05155876      1.06897325
  C     -6.93816037      0.42610754      1.30718819
  C     -7.35493676      1.61077111      0.71554975
  C     -6.50032556      2.31392685     -0.12152117
  H     -6.83702240      3.23638922     -0.58036846
  H     -7.60990827     -0.12339015      1.95623967
  H     -8.35406181      1.98783302      0.90050812
  H     -3.79425710      0.28270556      0.06213605
  H     -5.52886312      6.50498586     -4.22949416
  C     -4.39870688      1.72298586     -3.04455763
  C     -3.39168986      1.05201588     -3.73414079
  C     -3.67465036      0.33221153     -4.88426437
  C     -4.97535492      0.27303492     -5.36284257
  C     -5.99139708      0.93240363     -4.68276841
  C     -5.70851081      1.64868371     -3.53150773
  H     -5.19750943     -0.28831927     -6.26290735
  H     -7.01018666      0.88607185     -5.04951725
  H     -6.50933444      2.15240416     -3.00150984
  H     -5.32335796     -0.97553405      1.52844606
  H     -2.87723144     -0.18426488     -5.40571430
  H     -2.37184113      1.09050217     -3.36432767
  P     -1.69158427      0.59838163      4.78324155
  C     -0.92772117      1.80194048      5.91740408
  C     -1.39419980      3.10378302      6.09968534
  C     -0.72077657      3.97646312      6.94148418
  C      0.43177212      3.56945932      7.59762891
  C      0.90931567      2.27766924      7.41793185
  C      0.23537041      1.40034389      6.58473256
  H      0.95772212      4.25732361      8.24910099
  H     -2.29053205      3.43765920      5.58987182
  H      0.60427398      0.38795356      6.45444150
  H      1.80829091      1.95223598      7.92859528
  C     -2.03455248     -0.80835892      5.88289789
  C     -1.64034759     -2.08736526      5.48550335
  C     -1.87548344     -3.18545728      6.29776245
  C     -2.50509410     -3.01903235      7.52308990
  C     -2.88440630     -1.74926088      7.93934355
  C     -2.64714067     -0.64918961      7.13063262
  H     -2.92638744      0.34137493      7.47188887
  H     -2.69151238     -3.87672886      8.15863726
  H     -3.36368364     -1.61435893      8.90198102
  H     -1.13891099     -2.21961740      4.53238661
  H     -1.09896401      4.98251211      7.08128728
  C     -3.29963067      1.33760391      4.36040407
  C     -3.28790310      2.36748688      3.41371075
  C     -4.46425543      2.97688037      3.01248009
  C     -5.67737799      2.55798894      3.54234018
  C     -5.70449558      1.52799958      4.47181649
  C     -4.52571764      0.92061804      4.88025091
  H     -6.59974809      3.03039772      3.22593589
  H     -6.64929325      1.19508758      4.88567657
  H     -4.56199099      0.12564772      5.61586406
  H     -1.56229167     -4.17129285      5.97242501
  H     -4.43417283      3.77775652      2.28233162
  H     -2.34216936      2.69159112      2.99033610
  P     -1.55042618     -4.23350705      1.62276257
  C     -0.44631315     -5.05452085      2.81154864
  C     -0.88580229     -5.83612101      3.88211019
  C      0.02855828     -6.39502176      4.76337858
  C      1.38921035     -6.17926072      4.59246616
  C      1.83822865     -5.40147285      3.53326389
  C      0.92642028     -4.84385119      2.65252018
  H      2.09927766     -6.61295563      5.28667875
  H     -1.94603044     -6.00529422      4.03062497
  H      1.27855932     -4.22767608      1.83109339
  H      2.89887247     -5.22127736      3.39725416
  C     -1.93191815     -5.48813363      0.36202835
  C     -2.42910642     -5.03610161     -0.86295695
  C     -2.77529429     -5.93438186     -1.85867551
  C     -2.62783340     -7.29825661     -1.64222306
  C     -2.12714915     -7.75750926     -0.43171611
  C     -1.77688737     -6.86034281      0.56640991
  H     -1.37727238     -7.22668410      1.50515720
  H     -2.89706403     -8.00279065     -2.42024887
  H     -2.00530304     -8.82108923     -0.26282021
  H     -2.54171439     -3.96972301     -1.03149835
  H     -0.32577642     -7.00038314      5.58956267
  C     -3.13879313     -4.02865185      2.48620230
  C     -3.49970861     -2.75590489      2.93228817
  C     -4.68936424     -2.55585184      3.61481082
  C     -5.54310445     -3.62459171      3.85029587
  C     -5.20649011     -4.89093196      3.39136995
  C     -4.01555145     -5.09405533      2.71158547
  H     -6.47348263     -3.46861321      4.38346665
  H     -5.87568145     -5.72620834      3.56168517
  H     -3.77004827     -6.08387321      2.34354562
  H     -3.15616774     -5.56871873     -2.80563404
  H     -4.94804238     -1.56322697      3.96489185
  H     -2.84156502     -1.91498595      2.73914795
  P      1.79746413      3.85540395      2.53125915
  C      1.39040812      5.02066567      3.86765953
  C      2.24279536      5.28848090      4.94151740
  C      1.88327577      6.22121541      5.90256321
  C      0.67220897      6.89370372      5.80640714
  C     -0.18909695      6.62268548      4.75069154
  C      0.16577940      5.68918754      3.79023292
  H      0.39716612      7.62590602      6.55633263
  H      3.18776539      4.76409551      5.02660187
  H     -0.50891163      5.47289718      2.96795764
  H     -1.13919179      7.13892179      4.67642253
  C      2.72511910      4.87033777      1.33784236
  C      2.55459310      4.59980299     -0.02217039
  C      3.21747599      5.34500375     -0.98509932
  C      4.06428346      6.37558184     -0.59939075
  C      4.23885252      6.65861337      0.74882347
  C      3.57282387      5.91631122      1.71213948
  H      3.70340399      6.15628860      2.76143461
  H      4.58218370      6.96204751     -1.34921793
  H      4.89388210      7.46686554      1.05269629
  H      1.88901838      3.79863252     -0.32616980
  H      2.55413976      6.42539181      6.72898298
  C      3.05104579      2.76514853      3.28371422
  C      2.58518487      1.72731891      4.09564897
  C      3.46545791      0.84061209      4.69409153
  C      4.83198105      0.97466459      4.48434264
  C      5.30693415      2.00004795      3.67913522
  C      4.42561795      2.88750090      3.07846988
  H      5.52342223      0.28110715      4.94834778
  H      6.37241725      2.11072997      3.51401609
  H      4.81107880      3.67918181      2.44642989
  H      3.06456616      5.12460128     -2.03597293
  H      3.08381022      0.05009651      5.33014212
  H      1.51953320      1.62879027      4.27373297
