#B3LYP/6-31+G(d) OPT FREQ

246, Energy =   -372.44415169 au

0 1
 Au     -1.22150828     -0.84515296     -2.19973884
 Au      2.32429458      1.44861956      1.18958381
 Au      1.23059865     -2.02408419     -1.72343948
 Au     -0.98006370     -2.29308280      0.07851676
 Au      0.54911142      0.09586716     -0.23433714
 Au     -2.48111288      0.19337203      0.22638797
 Au     -2.38190641      1.04751423      2.61861252
 Au     -0.21396544      2.29125812      1.06208585
  P     -1.01679577      4.57280301      1.06440271
  C     -0.38503889      5.38764176     -0.44306115
  C     -1.04076634      6.44391712     -1.07830250
  C     -0.49856396      7.02945426     -2.21305411
  C      0.70445366      6.57018388     -2.73330888
  C      1.36266124      5.51579980     -2.11542278
  C      0.81957678      4.93005105     -0.98255450
  H      1.12569448      7.03049814     -3.61911975
  H     -1.98168560      6.81388937     -0.68814850
  H      1.33325142      4.10252444     -0.50652607
  H      2.29996578      5.14644215     -2.51574865
  C     -0.30472708      5.59547112      2.39452169
  C     -1.01606599      5.86305935      3.56680990
  C     -0.43227565      6.58309026      4.59830539
  C      0.88051764      7.02108237      4.48851246
  C      1.60844810      6.73188531      3.34148134
  C      1.02219540      6.02552711      2.30373993
  H      1.59840943      5.81303626      1.40973117
  H      1.33549418      7.58514416      5.29402954
  H      2.63700067      7.06234144      3.25158299
  H     -2.03548291      5.51092392      3.67360029
  H     -1.01647037      7.85407503     -2.68893529
  C     -2.79417672      4.97975723      1.05175292
  C     -3.68908914      3.99270998      0.63291967
  C     -5.05289600      4.23706708      0.59189388
  C     -5.54420028      5.48102765      0.96399986
  C     -4.66539491      6.47644499      1.37073443
  C     -3.30084672      6.23186798      1.41441840
  H     -6.60985533      5.67527574      0.93620384
  H     -5.04339807      7.45155449      1.65509097
  H     -2.62747421      7.01727491      1.73751171
  H     -1.00725236      6.80027546      5.49133092
  H     -5.73077169      3.45392282      0.27172332
  H     -3.30933765      3.02080891      0.33691919
  P     -2.03459490      1.73550611      4.83896851
  C     -2.28419242      0.50859585      6.15890900
  C     -1.24682753     -0.28846870      6.64555819
  C     -1.50264741     -1.28362111      7.57681872
  C     -2.79549354     -1.49793993      8.03380203
  C     -3.83570423     -0.71144252      7.55601694
  C     -3.58547116      0.27889255      6.61896737
  H     -2.99264720     -2.27487133      8.76290384
  H     -0.23122524     -0.12423865      6.30414221
  H     -4.40241160      0.88808518      6.24752820
  H     -4.84684640     -0.87030049      7.91236095
  C     -3.01642996      3.16454731      5.36846536
  C     -3.78440618      3.83159273      4.41147475
  C     -4.53718645      4.94332809      4.75868691
  C     -4.53108090      5.40171974      6.06887074
  C     -3.78179890      4.73850842      7.03225503
  C     -3.03148927      3.62473255      6.68947238
  H     -2.46138822      3.10208488      7.44932418
  H     -5.11670337      6.27170851      6.34168652
  H     -3.78383035      5.08916192      8.05772898
  H     -3.79321855      3.46735130      3.38945996
  H     -0.68574960     -1.89097590      7.94969946
  C     -0.29224000      2.23805195      4.99378359
  C      0.67287434      1.39528471      4.43210539
  C      2.01630592      1.73433913      4.47205946
  C      2.41438802      2.93301688      5.04983084
  C      1.46519249      3.77965697      5.60149366
  C      0.12195287      3.43377617      5.57891431
  H      3.46276221      3.20603280      5.07047673
  H      1.76898144      4.71791470      6.05109474
  H     -0.60795586      4.10645406      6.01327492
  H     -5.12859359      5.44974048      4.00432789
  H      2.75411514      1.05594307      4.05990914
  H      0.36660501      0.46733981      3.96132181
  P     -0.64611514     -3.55237384      2.06723540
  C     -0.03103073     -5.23300113      1.75790428
  C      0.65715697     -5.96939062      2.72692807
  C      1.12845955     -7.23919075      2.43392799
  C      0.92384422     -7.78826740      1.17450172
  C      0.24688490     -7.06326208      0.20343355
  C     -0.22581691     -5.79367777      0.49418653
  H      1.29704089     -8.78014891      0.94845687
  H      0.82608206     -5.54244112      3.70926787
  H     -0.75039563     -5.22393988     -0.26576275
  H      0.09186864     -7.48365991     -0.78361443
  C     -2.02357122     -3.71781200      3.23817871
  C     -2.63449728     -2.54446608      3.69265870
  C     -3.73798798     -2.59939562      4.52569096
  C     -4.25139494     -3.82982491      4.91699415
  C     -3.65744195     -5.00092826      4.46728467
  C     -2.55335439     -4.94876188      3.62865377
  H     -2.09949127     -5.86872747      3.27866096
  H     -5.11574696     -3.87361380      5.56896887
  H     -4.05646561     -5.96265285      4.76790801
  H     -2.23955183     -1.58071065      3.38446263
  H      1.66060560     -7.80256921      3.19155117
  C      0.69613509     -2.79540685      3.03973637
  C      1.84589170     -2.40765728      2.34589820
  C      2.92115740     -1.84453287      3.01099474
  C      2.86395791     -1.65141646      4.38557701
  C      1.72203284     -2.01832948      5.08377096
  C      0.64361755     -2.58545734      4.41855272
  H      3.70993283     -1.22155829      4.90946703
  H      1.67233559     -1.87157284      6.15649100
  H     -0.24036626     -2.86949750      4.97783677
  H     -4.20004128     -1.68088545      4.86862782
  H      3.80923020     -1.56163929      2.45795846
  H      1.89668731     -2.55793271      1.27275677
  P      4.70419088      1.54556122      1.30292040
  C      5.37502329      3.23015816      1.22797809
  C      6.69674948      3.54761712      1.55502327
  C      7.14248711      4.85750645      1.46794558
  C      6.28054132      5.86502090      1.05524539
  C      4.96452145      5.56192257      0.73229787
  C      4.51593370      4.25441183      0.82243437
  H      6.63330199      6.88754220      0.98962134
  H      7.37336795      2.76764999      1.88535429
  H      3.48438537      4.01748828      0.58160389
  H      4.28536307      6.34478125      0.41397455
  C      5.31335224      0.72161827     -0.20400501
  C      4.66267563     -0.45073503     -0.60037135
  C      5.05776597     -1.13060803     -1.74001523
  C      6.10308235     -0.64349755     -2.51261098
  C      6.75264568      0.52364186     -2.13400801
  C      6.36319357      1.20208062     -0.98736521
  H      6.87843592      2.11221231     -0.70244904
  H      6.40732927     -1.17251698     -3.40864150
  H      7.57010553      0.90837763     -2.73267117
  H      3.83697016     -0.83016670     -0.00760981
  H      8.16878280      5.09284854      1.72474845
  C      5.63153970      0.73111722      2.64095592
  C      5.68417956      1.35192999      3.89316943
  C      6.27446051      0.71484824      4.97259556
  C      6.81557744     -0.55535904      4.82053462
  C      6.77275010     -1.17964020      3.58163575
  C      6.18217800     -0.54505367      2.49878808
  H      7.27492688     -1.05472846      5.66532294
  H      7.20172811     -2.16692830      3.45445412
  H      6.16269060     -1.03987692      1.53436405
  H      4.54608606     -2.04250847     -2.02634309
  H      6.31182670      1.21113992      5.93539305
  H      5.27072645      2.34730601      4.01495445
  P     -0.44698554      0.59116400     -4.12168748
  C     -0.38405729     -0.33549485     -5.68768080
  C     -0.33736694      0.29119527     -6.93742794
  C     -0.26859638     -0.46301816     -8.09829395
  C     -0.24224327     -1.84979019     -8.03175212
  C     -0.28697834     -2.48376653     -6.79778072
  C     -0.35796590     -1.73150002     -5.63503493
  H     -0.19014902     -2.43653923     -8.94123402
  H     -0.35942525      1.37331867     -6.99856123
  H     -0.40803861     -2.22981057     -4.67208279
  H     -0.27167778     -3.56598268     -6.73928205
  C      1.26562504      1.20528609     -3.94260217
  C      1.61165065      1.88316513     -2.77027493
  C      2.91742286      2.28059955     -2.53451326
  C      3.90593629      2.00942691     -3.47021099
  C      3.57822330      1.33536554     -4.63747103
  C      2.27123074      0.93453868     -4.87278680
  H      2.03572486      0.40727304     -5.78953561
  H      4.92875757      2.31503245     -3.28481557
  H      4.34527853      1.11287427     -5.37034626
  H      0.84933503      2.09474288     -2.03001608
  H     -0.23528309      0.03524422     -9.06012536
  C     -1.44330840      2.06635729     -4.52350363
  C     -2.61709273      1.90199732     -5.26800419
  C     -3.46344647      2.97305575     -5.50277518
  C     -3.16385281      4.22462092     -4.98142644
  C     -2.00914948      4.39739044     -4.23126464
  C     -1.15518754      3.32962037     -4.00154288
  H     -3.82787764      5.06205834     -5.15971751
  H     -1.76759754      5.37121124     -3.82057233
  H     -0.25453704      3.48937446     -3.42018822
  H      3.16568054      2.79229768     -1.61145265
  H     -4.36351586      2.82715907     -6.08864289
  H     -2.86739175      0.92697740     -5.67115576
  P     -3.60732441     -1.40461628     -2.57306029
  C     -4.28172467     -2.25103401     -1.10819347
  C     -5.16832435     -1.63436279     -0.22495107
  C     -5.54564775     -2.26920908      0.95149788
  C     -5.04391121     -3.52357625      1.26191081
  C     -4.15395529     -4.14565386      0.39430241
  C     -3.77014031     -3.51180183     -0.77645510
  H     -5.33944122     -4.01665499      2.18054849
  H     -5.57367734     -0.65794031     -0.46040269
  H     -3.07217558     -4.00088098     -1.44754789
  H     -3.75440798     -5.12486479      0.63249016
  C     -4.07281421     -2.47760542     -3.97242494
  C     -3.58108953     -2.13014738     -5.23410374
  C     -3.84151722     -2.92114713     -6.34016182
  C     -4.59589739     -4.07897398     -6.20161822
  C     -5.09528177     -4.43154517     -4.95557537
  C     -4.83764785     -3.63940583     -3.84598943
  H     -5.23973051     -3.92550182     -2.88135790
  H     -4.79605327     -4.70364407     -7.06403796
  H     -5.69169479     -5.32949801     -4.84318146
  H     -2.98721267     -1.22965668     -5.34409030
  H     -6.23383987     -1.77595523      1.62809482
  C     -4.65594665      0.07027206     -2.75989289
  C     -4.13427671      1.32130003     -2.42611619
  C     -4.90914642      2.46524755     -2.53190957
  C     -6.21787584      2.37381065     -2.98504358
  C     -6.74548939      1.13655505     -3.33210089
  C     -5.97307722     -0.00887930     -3.22283936
  H     -6.82486090      3.26713649     -3.07341399
  H     -7.76560136      1.06311028     -3.69053453
  H     -6.39050203     -0.97122716     -3.49710842
  H     -3.44895070     -2.63614677     -7.30955036
  H     -4.48496759      3.42870623     -2.27282687
  H     -3.10510267      1.39944088     -2.09412352
  P      2.20947558     -3.87431573     -2.86328873
  C      2.90035208     -5.14655788     -1.76486850
  C      3.01192014     -6.49023910     -2.13158416
  C      3.53957037     -7.41450171     -1.24347582
  C      3.95645615     -7.01332529      0.01924898
  C      3.84402831     -5.68176429      0.39598758
  C      3.31859131     -4.75599060     -0.49068499
  H      4.36547515     -7.73990852      0.71133187
  H      2.68266492     -6.81164352     -3.11329516
  H      3.22785749     -3.71520370     -0.19726386
  H      4.16155463     -5.36403881      1.38256707
  C      3.51175146     -3.50876176     -4.07688656
  C      3.20959181     -2.59300169     -5.09097175
  C      4.17661548     -2.20965229     -6.00444850
  C      5.46466459     -2.72232123     -5.90896851
  C      5.77760728     -3.62349355     -4.90067169
  C      4.80936249     -4.01612416     -3.98757912
  H      5.06172578     -4.72169982     -3.20438927
  H      6.22323704     -2.41867077     -6.62060605
  H      6.78065593     -4.02670421     -4.82398128
  H      2.20672843     -2.18352788     -5.16056828
  H      3.62402649     -8.45401115     -1.53812257
  C      0.93602965     -4.74293594     -3.83261928
  C     -0.38187492     -4.71125301     -3.36822246
  C     -1.40050921     -5.32834172     -4.07537545
  C     -1.11677725     -5.98782845     -5.26400258
  C      0.18863017     -6.02928640     -5.73615507
  C      1.20960598     -5.41099413     -5.02844959
  H     -1.91292794     -6.46537179     -5.82288521
  H      0.41498831     -6.54493555     -6.66208972
  H      2.22301761     -5.43826062     -5.41197599
  H      3.92637625     -1.50652843     -6.79074589
  H     -2.41791060     -5.28747667     -3.70228642
  H     -0.60847994     -4.19098514     -2.44353978

