246
Energy =   -372.44174620 au
 Au     -1.02855903     -0.09996441     -2.74668267
 Au     -0.81527980     -1.41527383     -0.29082688
 Au     -2.62946104      0.66758054     -0.75752152
 Au     -0.17838427     -0.13839331      4.41512359
 Au      0.21216960      0.97610780     -0.37685058
 Au      2.05651670     -1.25141949     -0.25695134
 Au      0.78033496     -0.72205785      1.97386066
 Au      2.22354671     -1.03629047      4.20313825
  P     -1.27188916     -0.13965884     -5.10761458
  C     -0.70568110     -1.60905112     -6.01159113
  C     -1.58370133     -2.50803864     -6.61943409
  C     -1.09882466     -3.66139314     -7.22014695
  C      0.26287894     -3.93071376     -7.21936887
  C      1.14302658     -3.04399104     -6.61236197
  C      0.66351528     -1.89690540     -6.00340207
  H      0.63872675     -4.83156176     -7.68993724
  H     -2.64801026     -2.30320748     -6.62703966
  H      1.35240070     -1.21281515     -5.51852228
  H      2.20705789     -3.24981880     -6.60797059
  C     -0.54506651      1.28080744     -5.97676268
  C     -0.50794620      2.50160281     -5.29493399
  C      0.02656900      3.63064009     -5.89409721
  C      0.54295122      3.55190060     -7.18151652
  C      0.51902700      2.34368968     -7.86425096
  C     -0.02233599      1.21331669     -7.26969139
  H     -0.03410491      0.27326536     -7.80906271
  H      0.96714935      4.43210059     -7.64997301
  H      0.92383317      2.27907575     -8.86750966
  H     -0.89548355      2.55743538     -4.28264138
  H     -1.78902934     -4.34919022     -7.69452068
  C     -3.04934423      0.00793387     -5.46414305
  C     -3.96096397     -0.45507307     -4.51184469
  C     -5.32503175     -0.31164793     -4.70654902
  C     -5.79912575      0.29812105     -5.86008858
  C     -4.90416675      0.75670901     -6.81765614
  C     -3.53872947      0.61597618     -6.62335371
  H     -6.86530917      0.41924377     -6.01097339
  H     -5.27102249      1.23253551     -7.71964376
  H     -2.84747776      0.98536745     -7.37241083
  H      0.04665455      4.56983796     -5.35307077
  H     -6.01730366     -0.66948040     -3.95283942
  H     -3.59286167     -0.92704302     -3.60691604
  P     -2.06951169      0.91072415      5.45935400
  C     -3.80714128      0.54285700      5.04355479
  C     -4.52881502     -0.43174355      5.73626208
  C     -5.84025109     -0.71818132      5.38951570
  C     -6.45056273     -0.03586056      4.34560510
  C     -5.73442799      0.92168006      3.63758456
  C     -4.41948784      1.19983910      3.97258730
  H     -7.48102912     -0.24600306      4.08341060
  H     -4.06519042     -0.96011713      6.56170927
  H     -3.86910288      1.94634073      3.40943200
  H     -6.20467689      1.45919502      2.82277790
  C     -1.99223765      2.72780637      5.37408428
  C     -0.76892661      3.30514394      5.02944018
  C     -0.61694181      4.68194704      4.98000065
  C     -1.69365175      5.50681412      5.28013823
  C     -2.91923999      4.94657894      5.61694693
  C     -3.07155886      3.56900826      5.66146636
  H     -4.03668620      3.14594337      5.91524375
  H     -1.57853467      6.58393494      5.24861392
  H     -3.76292117      5.58678792      5.84757101
  H      0.07119228      2.65993820      4.79761568
  H     -6.39023809     -1.47068986      5.94261538
  C     -1.98998263      0.54827727      7.24181520
  C     -1.42416381     -0.66973973      7.62845800
  C     -1.33768737     -1.01761018      8.96702317
  C     -1.80956393     -0.14773300      9.94024662
  C     -2.36710716      1.06854369      9.56901844
  C     -2.45896204      1.41622512      8.23047623
  H     -1.73876466     -0.41522760     10.98793865
  H     -2.73268956      1.75228573     10.32638822
  H     -2.89309204      2.37039611      7.95453381
  H      0.34197423      5.10963477      4.70955405
  H     -0.89702916     -1.96659796      9.24998276
  H     -1.04767571     -1.34633684      6.86791955
  P     -4.58263244      2.00874069     -0.60943579
  C     -6.13996523      1.24880848     -0.05795455
  C     -7.16253115      1.93342325      0.60364130
  C     -8.33074343      1.27304302      0.95770297
  C     -8.49171829     -0.07332253      0.66059634
  C     -7.47873750     -0.76397067      0.00863839
  C     -6.30997946     -0.10882252     -0.34391338
  H     -9.40527836     -0.58511653      0.93910489
  H     -7.04678542      2.98367828      0.84437220
  H     -5.51465493     -0.65251329     -0.84441325
  H     -7.59603211     -1.81655796     -0.22200375
  C     -4.99922284      2.68098229     -2.25057689
  C     -3.96404829      2.83333273     -3.17612815
  C     -4.20796656      3.34689710     -4.43913092
  C     -5.49882000      3.70914255     -4.80040309
  C     -6.53898019      3.55127305     -3.89489263
  C     -6.29467920      3.04044389     -2.62878221
  H     -7.11730493      2.91240675     -1.93451255
  H     -5.69423312      4.10615053     -5.78950336
  H     -7.54927545      3.82506423     -4.17583467
  H     -2.95840757      2.53288988     -2.90183539
  H     -9.11789366      1.81507864      1.46866486
  C     -4.29969007      3.48667994      0.41045900
  C     -3.21023117      3.46215359      1.28495050
  C     -2.90856610      4.56064009      2.07227603
  C     -3.70069013      5.69869131      2.00541676
  C     -4.77837498      5.74101768      1.13087831
  C     -5.07205675      4.64805205      0.32932680
  H     -3.46877453      6.55681415      2.62539289
  H     -5.38928137      6.63377472      1.06511010
  H     -5.89615533      4.70337590     -0.37281151
  H     -3.39126280      3.45379306     -5.14436454
  H     -2.04835475      4.53113054      2.73052641
  H     -2.58531721      2.57607125      1.33262118
  P      1.18808800      3.14379082     -0.28443363
  C      0.01550118      4.51844260     -0.49027324
  C     -0.01486169      5.64131120      0.33797130
  C     -0.97393118      6.62529899      0.14791372
  C     -1.91549508      6.50111179     -0.86420213
  C     -1.90018084      5.38416027     -1.68934226
  C     -0.94536763      4.39920580     -1.49912692
  H     -2.66604315      7.26976389     -1.00562110
  H      0.71218485      5.74732378      1.13486457
  H     -0.94146001      3.51928305     -2.13480225
  H     -2.63755352      5.27572478     -2.47678120
  C      2.45645142      3.39630267     -1.56531772
  C      3.59457016      2.58473341     -1.50269871
  C      4.60724936      2.71481606     -2.43722819
  C      4.48458791      3.63895382     -3.46760923
  C      3.34417983      4.42426779     -3.55946550
  C      2.33524571      4.30799839     -2.61371852
  H      1.45412158      4.93511973     -2.68796269
  H      5.27487646      3.74004321     -4.20197775
  H      3.24008400      5.13862108     -4.36800917
  H      3.68343450      1.84946327     -0.70911908
  H     -0.98692998      7.49261193      0.79780052
  C      2.11089148      3.51937589      1.23974645
  C      1.85162249      2.77685650      2.39183370
  C      2.57265794      2.99516825      3.55545107
  C      3.55454054      3.97530768      3.58938977
  C      3.81446954      4.73100962      2.45352877
  C      3.10486845      4.50280210      1.28455479
  H      4.12105617      4.14547491      4.49720857
  H      4.58115134      5.49665876      2.47461082
  H      3.32808117      5.08405686      0.39709871
  H      5.48882484      2.08760111     -2.36792890
  H      2.37466936      2.39053622      4.43324057
  H      1.08245049      2.01305214      2.37110161
  P     -1.69162106     -3.60173667      0.07494044
  C     -3.39593782     -3.55267999      0.71878524
  C     -4.31400947     -4.59266606      0.56355733
  C     -5.59148951     -4.48757905      1.09247949
  C     -5.97151551     -3.34473605      1.78246007
  C     -5.07097789     -2.29883650      1.93237790
  C     -3.79553197     -2.40107251      1.40254130
  H     -6.96882957     -3.26567556      2.19909515
  H     -4.03381780     -5.48926050      0.02340921
  H     -3.10006239     -1.57532528      1.51393364
  H     -5.36494276     -1.39758150      2.45705707
  C     -0.76089696     -4.43012010      1.40247228
  C      0.21806950     -5.39312006      1.15152212
  C      1.00510276     -5.88272322      2.18454283
  C      0.84850983     -5.39740612      3.47512095
  C     -0.11168601     -4.42755991      3.73400166
  C     -0.90991559     -3.94961124      2.70797111
  H     -1.65905420     -3.19425628      2.92067295
  H      1.47247492     -5.77343343      4.27718883
  H     -0.24060534     -4.04227896      4.73907729
  H      0.36762783     -5.76712343      0.14527116
  H     -6.29289061     -5.30384103      0.96451788
  C     -1.72654885     -4.74427469     -1.33703300
  C     -1.61316716     -4.19113473     -2.61524591
  C     -1.64797072     -4.99363224     -3.74375641
  C     -1.79288528     -6.36795196     -3.61118399
  C     -1.90237199     -6.93259395     -2.34724923
  C     -1.87075272     -6.13039272     -1.21628471
  H     -1.81821478     -6.99834715     -4.49223717
  H     -2.01415465     -8.00518741     -2.23991060
  H     -1.95275388     -6.58454964     -0.23565377
  H      1.74798625     -6.64419307      1.97701151
  H     -1.55848996     -4.54605610     -4.72715352
  H     -1.49268507     -3.11721576     -2.72268847
  P      3.56988653     -1.86710356     -1.99494707
  C      3.71372727     -0.67920705     -3.37263322
  C      4.84670309     -0.59686888     -4.18631596
  C      4.89320891      0.30441691     -5.23926095
  C      3.81930195      1.14881874     -5.48473941
  C      2.69859353      1.09303652     -4.66739510
  C      2.64550749      0.18235478     -3.62476649
  H      3.85808270      1.85873432     -6.30256028
  H      5.70079442     -1.23494350     -3.99033272
  H      1.76834795      0.14724793     -2.98623822
  H      1.87044698      1.77145145     -4.83039585
  C      3.07871527     -3.40924544     -2.82805510
  C      2.11113165     -4.20566413     -2.21227021
  C      1.70529460     -5.40071854     -2.78452536
  C      2.25562060     -5.81487359     -3.98911680
  C      3.20676787     -5.02474768     -4.62113112
  C      3.61296607     -3.82812032     -4.05010837
  H      4.34302502     -3.21238648     -4.56278873
  H      1.94033540     -6.74966684     -4.43750046
  H      3.63768661     -5.34284203     -5.56336466
  H      1.67037171     -3.87878477     -1.27624313
  H      5.77630477      0.35158051     -5.86568963
  C      5.30586678     -2.08628767     -1.49430987
  C      5.81930026     -1.14031258     -0.60149421
  C      7.14148493     -1.19886333     -0.19374115
  C      7.96954259     -2.20867706     -0.66664366
  C      7.46577775     -3.16345225     -1.53921879
  C      6.14159930     -3.10726352     -1.94969321
  H      9.00490129     -2.25410261     -0.35029957
  H      8.10611132     -3.95784063     -1.90456712
  H      5.75823117     -3.86384040     -2.62435048
  H      0.95776160     -6.00970917     -2.28934388
  H      7.52658425     -0.45601999      0.49548767
  H      5.17245150     -0.35372823     -0.22509899
  P      4.51166306     -1.65489625      4.01981399
  C      4.76296537     -2.93024650      2.73964119
  C      6.04189253     -3.35613194      2.36833037
  C      6.20704089     -4.29650358      1.36451793
  C      5.10178615     -4.80953267      0.69816732
  C      3.82859095     -4.38904067      1.05296943
  C      3.66055827     -3.46471322      2.07327634
  H      5.23329349     -5.53501056     -0.09612166
  H      6.91268405     -2.94756755      2.86890814
  H      2.66132478     -3.16239407      2.36447823
  H      2.96052056     -4.78668352      0.54072261
  C      5.47904040     -2.22424944      5.44678253
  C      5.82582993     -1.29436549      6.43388142
  C      6.49226969     -1.70028744      7.57838244
  C      6.80762184     -3.04041066      7.76233280
  C      6.44872836     -3.97362110      6.79991979
  C      5.78324280     -3.57223695      5.65145620
  H      5.50295259     -4.30975980      4.90781148
  H      7.32818153     -3.35713385      8.65836506
  H      6.68597190     -5.02153732      6.94279581
  H      5.57355904     -0.24776371      6.29787947
  H      7.20414622     -4.62286569      1.09284922
  C      5.48734628     -0.28576683      3.31093447
  C      4.83590925      0.60187453      2.45119116
  C      5.52912265      1.63298918      1.83759484
  C      6.88733810      1.79587566      2.07657492
  C      7.54542006      0.92289175      2.93265256
  C      6.85286512     -0.11154588      3.54471196
  H      7.42914611      2.60480206      1.60081985
  H      8.60428581      1.04786809      3.12686424
  H      7.37813303     -0.78402112      4.21299526
  H      6.76353810     -0.96881068      8.33078376
  H      5.00753749      2.31789609      1.17877199
  H      3.77286324      0.48507945      2.26710161
