#B3LYP/6-31+G(d) OPT FREQ

246, Energy =   -372.46573926 au

0 1
 Au     -0.12064062      0.21267546      0.09164420
 Au      1.05330313     -1.31046719      2.50431093
 Au     -0.94775226      2.72437192      0.25931749
 Au      0.80030828     -2.29291020     -0.24963865
 Au     -1.93332242     -1.73658310     -0.80900051
 Au     -0.12294800     -0.80407240     -2.49783039
 Au      0.77681257      1.68264186      2.04780396
 Au      2.77108725     -0.41119429      0.81599552
  P      1.14380272     -4.63752830     -0.69928421
  C     -0.38774098     -5.19696953     -1.51097421
  C     -0.81102566     -4.50570725     -2.65241048
  C     -2.03369775     -4.78359692     -3.24094587
  C     -2.86330871     -5.75364796     -2.69174343
  C     -2.45192701     -6.45370561     -1.56683829
  C     -1.22400911     -6.17902242     -0.97916809
  H     -3.82583473     -5.96379167     -3.14301540
  H     -0.16971673     -3.74408033     -3.08405404
  H     -0.91613120     -6.73316764     -0.10005646
  H     -3.09005126     -7.21837904     -1.13909089
  C      1.36023618     -5.76507048      0.71093714
  C      1.18154308     -5.27107458      2.00354496
  C      1.31226219     -6.10249830      3.10422359
  C      1.63428259     -7.44064268      2.92544130
  C      1.82822664     -7.94161892      1.64439234
  C      1.69347517     -7.11297557      0.54188561
  H      1.84940946     -7.50855819     -0.45559367
  H      1.73912706     -8.09283519      3.78450993
  H      2.08620371     -8.98470383      1.50294963
  H      0.93570902     -4.22366565      2.14368212
  H     -2.33985630     -4.24075581     -4.12808870
  C      2.48064889     -5.10082734     -1.84420364
  C      3.77900603     -4.71368236     -1.49512302
  C      4.84795839     -5.00265374     -2.32780169
  C      4.63418773     -5.67717872     -3.52397105
  C      3.34960650     -6.06622004     -3.87836796
  C      2.27646440     -5.77910973     -3.04648932
  H      5.46959316     -5.90313526     -4.17598370
  H      3.18074945     -6.60650781     -4.80273197
  H      1.27839367     -6.09047935     -3.33204998
  H      1.16247742     -5.70354813      4.10139184
  H      5.84970461     -4.70219598     -2.04327871
  H      3.94749754     -4.19026498     -0.55923119
  P     -2.20411596      4.23656019     -1.08579074
  C     -1.25138509      5.06676447     -2.39771612
  C     -1.53357394      4.93531920     -3.75788996
  C     -0.73309887      5.55864439     -4.70437999
  C      0.35617531      6.32031800     -4.30619442
  C      0.64511486      6.46015111     -2.95409345
  C     -0.14946625      5.83401051     -2.00741416
  H      0.98006757      6.80594188     -5.04728516
  H     -2.38636620      4.34819696     -4.07824105
  H      0.07897208      5.94216243     -0.95194620
  H      1.49248454      7.05741608     -2.63753530
  C     -3.12542920      5.58622966     -0.29276048
  C     -3.30523466      5.53454853      1.09138401
  C     -4.01092053      6.53022066      1.74854871
  C     -4.53725550      7.59529789      1.03022230
  C     -4.35050008      7.66520042     -0.34422925
  C     -3.64781845      6.66983329     -1.00513448
  H     -3.49385742      6.73573514     -2.07647802
  H     -5.08712343      8.37581809      1.54273518
  H     -4.75261970      8.50118990     -0.90459421
  H     -2.87842653      4.70905261      1.65213081
  H     -0.96628153      5.45180726     -5.75760313
  C     -3.44195869      3.27199929     -2.01142565
  C     -3.04458725      2.01339962     -2.47219328
  C     -3.92692097      1.19629217     -3.15714382
  C     -5.22663991      1.62288023     -3.39573963
  C     -5.63462891      2.87016249     -2.94348650
  C     -4.75200517      3.68812084     -2.25220083
  H     -5.91772079      0.98266939     -3.93181911
  H     -6.64779476      3.20877942     -3.12656464
  H     -5.08664227      4.65573186     -1.89629018
  H     -4.14614634      6.47646247      2.82284908
  H     -3.59877041      0.22414219     -3.50669758
  H     -2.02970809      1.67471416     -2.29019720
  P     -0.54842458     -2.02961317      4.13718587
  C     -1.88030261     -0.85202654      4.53611368
  C     -3.17394253     -1.25009977      4.88115096
  C     -4.14000568     -0.30358974      5.19003876
  C     -3.82863048      1.04915048      5.16784241
  C     -2.54618753      1.45739104      4.82347080
  C     -1.58539704      0.51179011      4.50360292
  H     -4.58435767      1.78508596      5.41575124
  H     -3.42388097     -2.30463251      4.90762556
  H     -0.58776273      0.83248446      4.22435684
  H     -2.29120258      2.51138008      4.80691429
  C      0.15148673     -2.49120610      5.75046911
  C      1.41900734     -3.08050075      5.75143856
  C      1.99803808     -3.50666917      6.93582353
  C      1.32314837     -3.33699765      8.13811060
  C      0.07160147     -2.73577699      8.15079806
  C     -0.51426099     -2.31566026      6.96579378
  H     -1.49264373     -1.84916458      6.98490305
  H      1.77476074     -3.66957125      9.06520475
  H     -0.45457968     -2.59604817      9.08791107
  H      1.95108397     -3.20216128      4.81344454
  H     -5.13993162     -0.62602806      5.45656587
  C     -1.43978483     -3.54122650      3.64103863
  C     -1.80793365     -3.66422489      2.30019892
  C     -2.41819552     -4.81373891      1.83114192
  C     -2.67644457     -5.86560611      2.69995139
  C     -2.32491615     -5.75465278      4.03760723
  C     -1.70788983     -4.60392925      4.50650264
  H     -3.15014715     -6.76837276      2.33265062
  H     -2.52567311     -6.57098790      4.72160272
  H     -1.42865721     -4.53388062      5.55128202
  H      2.97852044     -3.96829390      6.92127868
  H     -2.68973590     -4.88880496      0.78471797
  H     -1.60563157     -2.84612864      1.61614171
  P     -4.26273568     -1.85443421     -0.31946127
  C     -4.63785522     -0.17532525      0.27978919
  C     -5.71090626      0.59493235     -0.16834229
  C     -5.89489070      1.88705307      0.30153895
  C     -5.00569587      2.43431641      1.21487971
  C     -3.92764413      1.68146805      1.66138034
  C     -3.74760135      0.38741553      1.20004269
  H     -5.14901555      3.44666125      1.57400041
  H     -6.40431971      0.18968673     -0.89588061
  H     -2.90241337     -0.19420814      1.55285531
  H     -3.22849462      2.09777891      2.37727321
  C     -5.01282993     -2.95750574      0.91967742
  C     -5.35656824     -4.25972309      0.53991081
  C     -5.86448705     -5.15173077      1.47072521
  C     -6.02476757     -4.76155403      2.79393491
  C     -5.67693384     -3.47500916      3.18154604
  C     -5.16949556     -2.57794324      2.25396283
  H     -4.90197134     -1.57507305      2.56777874
  H     -6.42136573     -5.45941983      3.52172254
  H     -5.80530311     -3.16558346      4.21248885
  H     -5.23118645     -4.57025951     -0.49200582
  H     -6.73439110      2.47194796     -0.05570985
  C     -5.29753403     -2.10211538     -1.78929385
  C     -4.67497977     -2.20371946     -3.03488485
  C     -5.42263812     -2.38243525     -4.18809882
  C     -6.80624628     -2.46148157     -4.11169095
  C     -7.43711217     -2.37664977     -2.87734678
  C     -6.69137836     -2.20401246     -1.72195355
  H     -7.39248125     -2.59938531     -5.01250045
  H     -8.51645603     -2.45007549     -2.81346343
  H     -7.18983013     -2.15952952     -0.76022525
  H     -6.13469583     -6.15473298      1.16158328
  H     -4.92326348     -2.46589651     -5.14649601
  H     -3.59247159     -2.15313530     -3.09346732
  P      1.81101756      2.66377945      3.95471650
  C      0.77846790      3.92577748      4.75684818
  C      1.05006559      4.41203113      6.04083791
  C      0.23292397      5.37241843      6.61574455
  C     -0.86636225      5.86182659      5.92274256
  C     -1.14609257      5.38817631      4.64852100
  C     -0.32962086      4.42788761      4.07147913
  H     -1.50505752      6.61054348      6.37627195
  H      1.90040512      4.02917708      6.59362262
  H     -0.55217605      4.06135418      3.07466457
  H     -2.00240685      5.76640139      4.10161283
  C      3.38219223      3.49867808      3.56702309
  C      4.28208387      2.82851529      2.73355019
  C      5.50861582      3.38856920      2.41680549
  C      5.84291007      4.64502457      2.90320330
  C      4.94485525      5.33412022      3.70605646
  C      3.72487085      4.76587618      4.04097804
  H      3.03659561      5.31457409      4.67311389
  H      6.79883910      5.08815193      2.65018171
  H      5.19569858      6.32008809      4.07971535
  H      4.00887483      1.86177600      2.32180751
  H      0.45504385      5.73948349      7.61093745
  C      2.24427949      1.53349066      5.31944267
  C      1.30991772      1.25385852      6.32194417
  C      1.60820844      0.35376136      7.33227318
  C      2.83550302     -0.29419309      7.35043572
  C      3.75968329     -0.04646949      6.34519551
  C      3.46656296      0.85768985      5.33638410
  H      3.06918998     -0.99259950      8.14513764
  H      4.71746491     -0.55396494      6.34860602
  H      4.20296169      1.04907215      4.56398489
  H      6.19988499      2.84655358      1.78137955
  H      0.87802318      0.15882518      8.10933672
  H      0.34888694      1.75580855      6.32278212
  P      0.28515724     -0.00833247     -4.69290498
  C      0.96487570     -1.24163337     -5.83775943
  C      0.87509879     -1.12120531     -7.22797446
  C      1.40400607     -2.10380430     -8.05025307
  C      2.01708948     -3.22180643     -7.50015045
  C      2.09498671     -3.36003549     -6.12104501
  C      1.57191745     -2.37698718     -5.29642676
  H      2.42572155     -3.98984533     -8.14616733
  H      0.37663930     -0.26368689     -7.66547430
  H      1.63029370     -2.48609637     -4.21808284
  H      2.55984571     -4.23691278     -5.68460269
  C      1.35513790      1.46053718     -4.77588023
  C      1.40549790      2.28842466     -3.65122683
  C      2.16186133      3.44876486     -3.66326140
  C      2.88604587      3.79582108     -4.79563009
  C      2.84997386      2.97678152     -5.91608660
  C      2.09061410      1.81623163     -5.90823907
  H      2.07318252      1.18242712     -6.78708253
  H      3.47786471      4.70356138     -4.80293898
  H      3.41337112      3.24293629     -6.80276417
  H      0.84414448      2.01853111     -2.76206306
  H      1.33140990     -1.99835184     -9.12640216
  C     -1.23937829      0.53847437     -5.52181377
  C     -2.18289686     -0.43011664     -5.88136208
  C     -3.38341689     -0.05880619     -6.46483263
  C     -3.66811964      1.28376064     -6.68086898
  C     -2.74481782      2.25238584     -6.31419048
  C     -1.53862437      1.88465345     -5.73650660
  H     -4.60842245      1.57269807     -7.13515705
  H     -2.96142249      3.30118715     -6.48186062
  H     -0.82252087      2.64878039     -5.45663830
  H      2.18414467      4.08586711     -2.78712505
  H     -4.09973950     -0.81941711     -6.75351195
  H     -1.96587611     -1.47961251     -5.71053350
  P      4.41280601      0.59808089     -0.61733518
  C      4.34123186      2.42055982     -0.69137712
  C      5.44974542      3.22513776     -0.96898582
  C      5.33796366      4.60733695     -0.94814755
  C      4.12567021      5.20945285     -0.63874829
  C      3.01727519      4.42130223     -0.36023289
  C      3.12750590      3.04016279     -0.39330717
  H      4.04639139      6.28972959     -0.60840623
  H      6.40824361      2.76961228     -1.18951488
  H      2.25939112      2.42887199     -0.17618788
  H      2.06771664      4.87795334     -0.10492410
  C      4.45769840      0.06022708     -2.35752328
  C      4.29423813     -1.30566794     -2.60446783
  C      4.39462170     -1.80784524     -3.89101677
  C      4.63981382     -0.94920807     -4.95495830
  C      4.78245439      0.41115496     -4.72350806
  C      4.69267885      0.91589654     -3.43435328
  H      4.80788885      1.98066870     -3.26602064
  H      4.71766475     -1.34184290     -5.96200915
  H      4.97248476      1.08573177     -5.55018675
  H      4.09823796     -1.97906218     -1.77613221
  H      6.20699355      5.21808185     -1.16356348
  C      6.11563378      0.27086139     -0.06512947
  C      6.32527828      0.01426966      1.29235506
  C      7.60249277     -0.20837486      1.78132872
  C      8.68910581     -0.18667028      0.91729204
  C      8.49196150      0.05039109     -0.43624046
  C      7.21537073      0.27684215     -0.92763658
  H      9.68834388     -0.36204843      1.29798849
  H      9.33646329      0.05854442     -1.11554234
  H      7.07156525      0.44959222     -1.98827795
  H      4.29108560     -2.87308458     -4.06283583
  H      7.74892512     -0.40358681      2.83739720
  H      5.47537860     -0.01749345      1.96627010

