#B3LYP/6-31+G(d) OPT FREQ

246, Energy =   -372.43629117 au

0 1
 Au      1.76478908     -2.22494903     -0.91247747
 Au      0.43211243      0.15024314     -0.06832133
 Au     -3.46416338     -0.69854630     -1.26857913
 Au     -1.58205910      0.68133873     -2.30681117
 Au      1.97092488      2.11225768      0.61805632
 Au     -0.50275984      2.76993328     -0.52941700
 Au     -0.92416227     -1.95950939     -1.28427625
 Au      0.07282953     -2.38839018      1.19873082
  P     -5.34105177     -1.65682023     -0.22710423
  C     -6.55323434     -0.40384147      0.27944151
  C     -7.93359593     -0.55503260      0.13742496
  C     -8.79198086      0.45664751      0.54150296
  C     -8.28584233      1.62578102      1.09241947
  C     -6.91367052      1.78771085      1.23366087
  C     -6.05287634      0.78421843      0.82234830
  H     -8.95982585      2.41374894      1.40749247
  H     -8.33715251     -1.46486930     -0.29211259
  H     -4.97985931      0.91599251      0.92122156
  H     -6.51253703      2.70078639      1.65931618
  C     -4.99683510     -2.58573736      1.30059354
  C     -3.94996392     -3.51184445      1.27591086
  C     -3.62674285     -4.23947059      2.40878860
  C     -4.32721089     -4.03738412      3.59085126
  C     -5.36156027     -3.11284191      3.62926982
  C     -5.69887704     -2.39360501      2.49140044
  H     -6.51016329     -1.67615625      2.53064039
  H     -4.06582311     -4.60047794      4.47924405
  H     -5.91445146     -2.95311129      4.54767775
  H     -3.39018728     -3.66158686      0.35843267
  H     -9.86202389      0.32965328      0.42479485
  C     -6.23821361     -2.84891295     -1.26007430
  C     -6.07718947     -2.77548296     -2.64578043
  C     -6.71721583     -3.67895860     -3.47992722
  C     -7.52640232     -4.66891656     -2.93805668
  C     -7.69332984     -4.75173475     -1.56159625
  C     -7.05296081     -3.85053601     -0.72483306
  H     -8.02447409     -5.37856209     -3.58804181
  H     -8.32533436     -5.52272119     -1.13650318
  H     -7.17793197     -3.92782909      0.34934018
  H     -2.82515531     -4.96707700      2.36931955
  H     -6.57919986     -3.61213879     -4.55318191
  H     -5.43743650     -2.00774323     -3.06866481
  P      0.54914403     -2.83112821      3.48104131
  C      0.00517800     -1.54903428      4.64649206
  C     -0.97503746     -1.76074739      5.61765511
  C     -1.37642405     -0.72454122      6.44853503
  C     -0.82333098      0.54013982      6.30632574
  C      0.12571795      0.77097045      5.31870094
  C      0.53354552     -0.26204974      4.49158090
  H     -1.13630035      1.34781756      6.95731940
  H     -1.42578928     -2.74010356      5.72930810
  H      1.27242551     -0.07572247      3.71823846
  H      0.54890343      1.76112408      5.19564822
  C      2.35883186     -2.90399643      3.69041139
  C      3.08826645     -3.58207091      2.70978914
  C      4.45773688     -3.74919190      2.83360274
  C      5.12092534     -3.23242296      3.93879525
  C      4.40864207     -2.54739295      4.91376963
  C      3.03585071     -2.38590548      4.79562089
  H      2.49022507     -1.85574811      5.56764205
  H      6.19247283     -3.35963559      4.03744663
  H      4.92293373     -2.13931934      5.77621540
  H      2.57230764     -3.98403196      1.84349579
  H     -2.12690529     -0.90734745      7.20877954
  C      0.06499365     -4.43494511      4.18636910
  C     -0.42717746     -5.41850756      3.32679761
  C     -0.76444984     -6.67346017      3.81068902
  C     -0.61015056     -6.96142872      5.15935542
  C     -0.09958494     -5.99761757      6.01933101
  C      0.24463896     -4.74457106      5.53828906
  H     -0.87783513     -7.94029850      5.53920200
  H      0.03760328     -6.22478727      7.07008905
  H      0.66386841     -4.00564060      6.21204908
  H      5.00810277     -4.27884962      2.06429700
  H     -1.14577941     -7.42821164      3.13246883
  H     -0.53322102     -5.19602467      2.26994222
  P     -2.01448056      3.46590334      1.27535204
  C     -3.60506468      4.23725638      0.82534851
  C     -4.51109819      4.73830456      1.76547775
  C     -5.71504973      5.28897702      1.35394095
  C     -6.03544558      5.34537548      0.00298166
  C     -5.14425148      4.85056125     -0.93791751
  C     -3.93937250      4.30195432     -0.52788351
  H     -6.97804192      5.77614197     -0.31339758
  H     -4.27587566      4.70073707      2.82266559
  H     -3.24228892      3.92023566     -1.26603091
  H     -5.38319777      4.89335592     -1.99456721
  C     -1.23782337      4.59318127      2.47435629
  C     -0.19306420      4.08452074      3.25453674
  C      0.50109936      4.90284408      4.12956724
  C      0.16730592      6.24725984      4.23424285
  C     -0.85578374      6.76692648      3.45379746
  C     -1.55014257      5.94991236      2.57224272
  H     -2.34115473      6.36951818      1.96131696
  H      0.70933551      6.88921530      4.91845168
  H     -1.11515801      7.81666530      3.52750946
  H      0.07170419      3.03516082      3.17016350
  H     -6.40564742      5.67922335      2.09245723
  C     -2.53362021      2.08141977      2.35608412
  C     -2.44518204      0.77940784      1.86589966
  C     -2.83117229     -0.30638728      2.63443330
  C     -3.34938125     -0.10370445      3.90452685
  C     -3.44493453      1.18670305      4.40829351
  C     -3.02694700      2.26952515      3.65008574
  H     -3.66886062     -0.94927182      4.50226617
  H     -3.83888982      1.35137101      5.40446194
  H     -3.08030938      3.26667858      4.07118834
  H      1.30671095      4.49180100      4.72766549
  H     -2.72777169     -1.30850374      2.23427091
  H     -2.05883999      0.61250164      0.86933229
  P     -1.64066394     -3.81390260     -2.76121211
  C     -2.43756500     -5.12634201     -1.78660235
  C     -3.79566020     -5.42925264     -1.90767735
  C     -4.39054574     -6.35525996     -1.06376433
  C     -3.64045255     -6.99355314     -0.08666530
  C     -2.29058780     -6.69409075      0.05036002
  C     -1.69664667     -5.75859385     -0.78093937
  H     -4.10465229     -7.72096284      0.56862668
  H     -4.39187998     -4.93965437     -2.66901362
  H     -0.64566007     -5.51778690     -0.65690119
  H     -1.69725767     -7.19387421      0.80743510
  C     -0.11148641     -4.59528554     -3.38072296
  C      0.92294941     -3.73850859     -3.76772841
  C      2.13613871     -4.24050903     -4.20968173
  C      2.33416109     -5.61376172     -4.27144904
  C      1.31000804     -6.47509758     -3.90333595
  C      0.09340448     -5.97303537     -3.46304842
  H     -0.69530396     -6.65829731     -3.17475789
  H      3.28548543     -6.01041064     -4.60623583
  H      1.45810579     -7.54753264     -3.95607120
  H      0.76329121     -2.66680211     -3.72782889
  H     -5.44623334     -6.57642549     -1.17285035
  C     -2.67358174     -3.67761518     -4.26208788
  C     -3.10680370     -2.42008213     -4.68337845
  C     -3.90349929     -2.28643548     -5.81059168
  C     -4.27449641     -3.41200664     -6.53325459
  C     -3.83645636     -4.66809445     -6.13224739
  C     -3.03888218     -4.80331689     -5.00746529
  H     -4.89979197     -3.31090722     -7.41241392
  H     -4.11769898     -5.54784751     -6.69940534
  H     -2.69714984     -5.78652867     -4.70347668
  H      2.92790106     -3.55937277     -4.50140758
  H     -4.23419402     -1.30245955     -6.12283808
  H     -2.81555804     -1.53794338     -4.12312291
  P      4.09311341     -1.94256493     -1.26081445
  C      4.46428205     -0.60949260     -2.44218464
  C      4.35297695      0.72158588     -2.02952339
  C      4.52016638      1.75787616     -2.93372115
  C      4.80467587      1.48193344     -4.26469396
  C      4.90488186      0.16485639     -4.68987408
  C      4.72311760     -0.87518106     -3.78977736
  H      4.94352294      2.29303169     -4.96976133
  H      4.13947836      0.94834156     -0.98995936
  H      4.78813832     -1.90028838     -4.13667477
  H      5.11919235     -0.05733407     -5.72869625
  C      5.06075660     -3.38120395     -1.79249234
  C      4.50104337     -4.64485051     -1.58326707
  C      5.18798407     -5.79183712     -1.94726230
  C      6.44456204     -5.69153489     -2.52919002
  C      7.00865401     -4.44184918     -2.74807725
  C      6.32499154     -3.29203097     -2.38433187
  H      6.77165647     -2.32176791     -2.56914665
  H      6.98291498     -6.58713700     -2.81577430
  H      7.98717775     -4.36009187     -3.20674843
  H      3.51492489     -4.72316766     -1.13639929
  H      4.42858443      2.78476028     -2.59852367
  C      4.89514522     -1.34131097      0.26520588
  C      4.09478419     -0.79803333      1.27198982
  C      4.65498473     -0.28888710      2.43200544
  C      6.03160507     -0.31971189      2.60914127
  C      6.83924323     -0.87083328      1.62211553
  C      6.27795911     -1.37692094      0.45954250
  H      6.47142940      0.07588103      3.51712663
  H      7.91387759     -0.90633082      1.75778991
  H      6.92213825     -1.80512335     -0.29930550
  H      4.74043499     -6.76458674     -1.77910860
  H      4.01345218      0.12302144      3.20215559
  H      3.01863259     -0.78450358      1.14969053
  P     -0.19564405      3.37492490     -2.90610942
  C      1.28169124      4.41414657     -3.15135633
  C      2.24522508      4.17038599     -4.13140924
  C      3.35243139      4.99862253     -4.24464131
  C      3.51200222      6.07803998     -3.38636659
  C      2.56052174      6.32753756     -2.40546034
  C      1.45676097      5.49868405     -2.28688273
  H      4.37514415      6.72594385     -3.48341196
  H      2.12888236      3.33419784     -4.81113705
  H      0.71527845      5.69246854     -1.51938550
  H      2.67619057      7.16912524     -1.73209141
  C     -1.54125496      4.28463642     -3.72695718
  C     -2.80615514      3.68950945     -3.78521625
  C     -3.87833848      4.35329730     -4.35788772
  C     -3.70853029      5.63651424     -4.86250038
  C     -2.46319820      6.24456609     -4.79560600
  C     -1.38545269      5.57657167     -4.23362775
  H     -0.41723591      6.06166525     -4.19394398
  H     -4.54689816      6.16041387     -5.30593364
  H     -2.32611724      7.24595201     -5.18679575
  H     -2.94427688      2.69010603     -3.38332607
  H      4.09057914      4.80326390     -5.01415570
  C      0.10306892      1.93871743     -3.99692525
  C      1.11535176      1.04017318     -3.62981396
  C      1.36402248     -0.09430322     -4.38448537
  C      0.59914447     -0.36652511     -5.51093443
  C     -0.40922524      0.51033835     -5.88324594
  C     -0.65477868      1.65453508     -5.13832914
  H      0.79164311     -1.25751108     -6.09678806
  H     -1.00893793      0.30715727     -6.76285882
  H     -1.43429690      2.33723724     -5.45264196
  H     -4.84643940      3.86872178     -4.41084244
  H      2.16304524     -0.76543880     -4.09270819
  H      1.72022991      1.24654598     -2.75415113
  P      3.69755180      3.61265205      1.29076016
  C      5.19341171      3.61217134      0.25897549
  C      5.38951886      4.56144889     -0.74693379
  C      6.47902479      4.46770110     -1.60047579
  C      7.37938702      3.41854866     -1.47306400
  C      7.18621572      2.46062088     -0.48639842
  C      6.10050628      2.55347129      0.36918914
  H      8.22853099      3.34653055     -2.14227544
  H      4.68897013      5.38127769     -0.85916138
  H      5.95591282      1.80262415      1.13771450
  H      7.88158227      1.63527601     -0.38267488
  C      4.30393669      3.24274888      2.96657404
  C      3.43137733      2.58013556      3.83376074
  C      3.82031304      2.25913526      5.12502136
  C      5.09372562      2.59336650      5.56651915
  C      5.97065605      3.25000772      4.71361549
  C      5.58123972      3.57494481      3.42286749
  H      6.27748498      4.08171686      2.76455059
  H      5.40306120      2.33981287      6.57362594
  H      6.96582780      3.51106525      5.05436163
  H      2.44153451      2.30858416      3.48202570
  H      6.62293165      5.21785105     -2.36966338
  C      3.21725683      5.36675069      1.37600977
  C      1.90373895      5.71727958      1.06388720
  C      1.49547414      7.04185433      1.09847488
  C      2.39668651      8.03423633      1.45779249
  C      3.70479732      7.69684411      1.78139350
  C      4.11544063      6.37422507      1.74019232
  H      2.08009877      9.07013727      1.48808206
  H      4.40988725      8.46934477      2.06537546
  H      5.13941048      6.12043033      1.99014434
  H      3.13125004      1.74265021      5.78378389
  H      0.47155741      7.29655719      0.84986867
  H      1.19718941      4.94024179      0.79234474

