246
Energy =   -372.45582680 au
 Au     -0.10687264      0.75609415     -2.98588289
 Au     -0.64344859     -1.67105077      1.60340857
 Au      0.68692207     -1.75339098     -3.48552794
 Au     -1.93969016     -1.12694041     -3.19130300
 Au     -0.28939775     -1.26213136     -0.88135047
 Au      1.26375271      0.48316138      0.92466025
 Au     -0.79430296      1.68709705     -0.12825068
 Au      0.53956314      2.91775081      1.85220299
  P      1.15566773      4.29513219      3.69513598
  C      0.75466106      3.52534739      5.29702389
  C      1.53656099      3.66935059      6.44522585
  C      1.14156303      3.08396184      7.63882710
  C     -0.03893006      2.35522061      7.70593974
  C     -0.82521997      2.20832155      6.57032152
  C     -0.42665640      2.78525690      5.37515614
  H     -0.34623766      1.90321779      8.64173736
  H      2.45969814      4.23599409      6.40606452
  H     -1.03646345      2.66347163      4.48667983
  H     -1.75084022      1.64538950      6.61536137
  C      0.45883947      5.96703371      3.88035839
  C     -0.54513599      6.38625745      3.00627740
  C     -1.09319067      7.65532567      3.12068111
  C     -0.65349783      8.51485641      4.11733271
  C      0.33327850      8.10130492      5.00302161
  C      0.88709635      6.83667572      4.88796674
  H      1.65603369      6.51985156      5.58380472
  H     -1.08134778      9.50645788      4.20614651
  H      0.67411202      8.76762696      5.78684492
  H     -0.89542440      5.71016562      2.23302780
  H      1.75815182      3.20041072      8.52256206
  C      2.95641571      4.52757187      3.75251913
  C      3.75358374      3.41895345      4.05511677
  C      5.13496993      3.50368568      4.00268033
  C      5.74374346      4.69525582      3.62986803
  C      4.96333322      5.79898986      3.31420776
  C      3.57926824      5.71766665      3.37018444
  H      6.82429262      4.76264701      3.58488201
  H      5.43333831      6.73110108      3.02265603
  H      2.98092998      6.58835507      3.12667564
  H     -1.86356447      7.97487714      2.42824522
  H      5.73558661      2.63460912      4.24681350
  H      3.28024343      2.48560933      4.33714796
  P     -3.70770714     -2.71911619     -3.35265113
  C     -5.43274636     -2.17416294     -3.16713206
  C     -6.33076175     -2.12644058     -4.23526566
  C     -7.61512304     -1.63519818     -4.04922064
  C     -8.01644669     -1.18078224     -2.80108122
  C     -7.12867082     -1.21805169     -1.73350184
  C     -5.84429047     -1.70442471     -1.91487368
  H     -9.01998372     -0.79779123     -2.65862839
  H     -6.02810088     -2.48385352     -5.21273872
  H     -5.15245603     -1.73030445     -1.07907854
  H     -7.43523350     -0.86408307     -0.75574576
  C     -3.56070046     -4.07291067     -2.14350212
  C     -2.29124507     -4.42259515     -1.67810871
  C     -2.13029962     -5.45172083     -0.76514709
  C     -3.23578751     -6.15659537     -0.30906276
  C     -4.50315898     -5.82252455     -0.76702638
  C     -4.66709654     -4.78653346     -1.67404398
  H     -5.66224100     -4.52860790     -2.01714614
  H     -3.10890432     -6.96402970      0.40244686
  H     -5.36999817     -6.37244795     -0.41946407
  H     -1.42117102     -3.88090559     -2.03432027
  H     -8.30454427     -1.60939965     -4.88500188
  C     -3.66600622     -3.55700035     -4.96574439
  C     -3.14848986     -2.85721320     -6.05883382
  C     -3.10583118     -3.43989701     -7.31523669
  C     -3.57412483     -4.73474829     -7.49465049
  C     -4.08216369     -5.44379245     -6.41324817
  C     -4.12936017     -4.86132537     -5.15623575
  H     -3.54232793     -5.19211876     -8.47644835
  H     -4.44681804     -6.45516839     -6.54994740
  H     -4.52717111     -5.42211502     -4.31797322
  H     -1.13895246     -5.70426876     -0.40785526
  H     -2.70455565     -2.88379721     -8.15450845
  H     -2.77882870     -1.84661631     -5.91707075
  P     -2.91264190      2.32883235     -1.05863540
  C     -3.31697803      4.08642579     -0.81265460
  C     -3.65360686      4.97050488     -1.83826678
  C     -3.90562304      6.30610664     -1.55843433
  C     -3.83940440      6.77325536     -0.25389645
  C     -3.51010262      5.90014501      0.77585273
  C     -3.23476932      4.57266479      0.49662609
  H     -4.04713048      7.81433775     -0.03711276
  H     -3.72886184      4.61689388     -2.85980944
  H     -2.96224099      3.89668716      1.30093162
  H     -3.47157066      6.25416051      1.79932313
  C     -4.23673901      1.48655940     -0.13347400
  C     -3.95405619      0.25985567      0.47071873
  C     -4.90401437     -0.38846297      1.24432859
  C     -6.15481800      0.18508220      1.42968705
  C     -6.45230113      1.40110093      0.82737688
  C     -5.50356396      2.04798142      0.05078299
  H     -5.74253006      3.00085759     -0.40740019
  H     -6.89330347     -0.31078729      2.04848709
  H     -7.42751827      1.85208748      0.96910222
  H     -2.97355983     -0.18440110      0.34027536
  H     -4.16406901      6.98169785     -2.36553601
  C     -3.29068393      2.01413912     -2.81428355
  C     -2.46347951      2.58273109     -3.79123298
  C     -2.67135773      2.32523042     -5.13740202
  C     -3.70382841      1.48527919     -5.53273476
  C     -4.52796102      0.91239963     -4.57494619
  C     -4.32313194      1.16981478     -3.22568083
  H     -3.86752739      1.28116187     -6.58413531
  H     -5.33946427      0.26016851     -4.87646835
  H     -4.97763899      0.71920130     -2.48880445
  H     -4.66114381     -1.33386321      1.71598902
  H     -2.02410709      2.78333300     -5.87638731
  H     -1.66313190      3.24988018     -3.49423089
  P      3.30442696     -0.42544200      1.78138540
  C      4.75241437      0.53661014      1.23088098
  C      6.00848287     -0.01225003      0.96386541
  C      7.05836386      0.80069917      0.56087306
  C      6.87385351      2.16955219      0.42545109
  C      5.63187087      2.72793403      0.69795358
  C      4.58128242      1.91649913      1.09309970
  H      7.69632708      2.80102594      0.11095618
  H      6.16986777     -1.07862883      1.06983882
  H      3.61265201      2.35497512      1.30828404
  H      5.48246855      3.79772875      0.60602683
  C      3.78857806     -2.16080940      1.51481461
  C      3.73982101     -3.10852928      2.53901476
  C      4.08553426     -4.42947868      2.29532272
  C      4.48941681     -4.82304925      1.02719969
  C      4.52178137     -3.89422134     -0.00474317
  C      4.15751031     -2.57845645      0.23151545
  H      4.16756867     -1.86412285     -0.58475822
  H      4.77042492     -5.85262786      0.83980458
  H      4.82457859     -4.19730539     -1.00062938
  H      3.44053941     -2.80845750      3.53678903
  H      8.02721264      0.36024912      0.35561064
  C      3.39973801     -0.22287727      3.58853792
  C      2.24306511      0.08569343      4.30525997
  C      2.29618775      0.29479793      5.67482628
  C      3.50580121      0.19697621      6.34739938
  C      4.66351375     -0.11454135      5.64604329
  C      4.61325897     -0.32149418      4.27696097
  H      3.54589711      0.36533350      7.41715557
  H      5.61056832     -0.19267385      6.16706263
  H      5.52208028     -0.55596864      3.73382811
  H      4.04703164     -5.15145105      3.10284870
  H      1.38954717      0.53361883      6.21753931
  H      1.29527122      0.16571595      3.78369019
  P      1.34212554      2.68104490     -3.06395348
  C      1.30457130      3.96841933     -1.77360540
  C      2.35078373      4.12785003     -0.86268584
  C      2.29038163      5.10854336      0.11629447
  C      1.18309136      5.94227592      0.20313692
  C      0.12190106      5.77248883     -0.67623288
  C      0.17931985      4.79036377     -1.65197077
  H      1.14953397      6.72308437      0.95330856
  H      3.22653083      3.49372231     -0.92829213
  H     -0.65019374      4.67380839     -2.34029584
  H     -0.75085333      6.41172778     -0.60728390
  C      1.15061077      3.60860693     -4.61470387
  C      0.77774179      2.88873946     -5.75392702
  C      0.61584704      3.52738245     -6.97269085
  C      0.81817760      4.89803119     -7.06933921
  C      1.18746368      5.62343114     -5.94523919
  C      1.35524830      4.98646995     -4.72495229
  H      1.64228552      5.56360808     -3.85363841
  H      0.68646928      5.39993151     -8.02054765
  H      1.34745699      6.69296393     -6.01675431
  H      0.61576231      1.81831937     -5.67785256
  H      3.11957152      5.23151435      0.80320923
  C      3.09347453      2.17570865     -3.05763111
  C      3.46042963      1.03320439     -2.34289375
  C      4.78689909      0.63838831     -2.27795320
  C      5.76620155      1.37722043     -2.92767740
  C      5.41164021      2.50777461     -3.65094037
  C      4.08552245      2.90557269     -3.71712824
  H      6.80416802      1.07168316     -2.86769521
  H      6.17165624      3.08507714     -4.16430401
  H      3.81744938      3.79063060     -4.28287510
  H      0.32922869      2.95496936     -7.84725532
  H      5.05977790     -0.24763669     -1.71683300
  H      2.69950909      0.45497306     -1.82831444
  P     -1.51090879     -1.92251486      3.78408033
  C     -2.62376687     -3.35533248      3.91558727
  C     -2.83127765     -4.06499974      5.10029603
  C     -3.72599995     -5.12413294      5.13411944
  C     -4.42665060     -5.48481534      3.99149723
  C     -4.22189182     -4.79010710      2.80662423
  C     -3.32087375     -3.73895226      2.76698362
  H     -5.12830361     -6.31005219      4.02217272
  H     -2.28689764     -3.79188818      5.99711599
  H     -3.14795547     -3.20870089      1.83574078
  H     -4.76168740     -5.06973657      1.90904441
  C     -2.61923569     -0.53433238      4.18835306
  C     -2.49988506      0.64437512      3.45114646
  C     -3.34972966      1.71589456      3.67845505
  C     -4.33166257      1.62604747      4.65507169
  C     -4.46304614      0.45816069      5.39515576
  C     -3.62002680     -0.61732208      5.16078493
  H     -3.74849654     -1.53276276      5.72728858
  H     -4.99882345      2.46111393      4.83334885
  H     -5.23305030      0.38075528      6.15390676
  H     -1.73753011      0.71633339      2.68328336
  H     -3.87759456     -5.66840557      6.05901396
  C     -0.39213340     -2.10996483      5.20700939
  C      0.72614504     -2.92983668      5.02526913
  C      1.62119364     -3.14217686      6.06092153
  C      1.41657215     -2.53095258      7.29131766
  C      0.31629648     -1.70559747      7.47919216
  C     -0.58313960     -1.49298322      6.44407963
  H      2.11681891     -2.69486824      8.10182111
  H      0.15465456     -1.22386989      8.43666002
  H     -1.43690984     -0.84405282      6.60093831
  H     -3.24993065      2.61748838      3.08436366
  H      2.48111903     -3.78424539      5.90844508
  H      0.88836062     -3.40372728      4.06219228
  P      1.97398311     -3.70406337     -3.74097932
  C      1.72292682     -4.85410338     -2.35055002
  C      1.66911718     -6.24062618     -2.51252789
  C      1.48752964     -7.06786369     -1.41442333
  C      1.35022580     -6.52674522     -0.14290413
  C      1.39663688     -5.14879515      0.02884802
  C      1.58666637     -4.32325456     -1.06713687
  H      1.20648405     -7.17622895      0.71244779
  H      1.76504154     -6.67429733     -3.50110941
  H      1.63413701     -3.24922301     -0.92627061
  H      1.29070572     -4.71513751      1.01710507
  C      3.77654295     -3.50051125     -3.82504459
  C      4.29918561     -2.24097953     -4.12343071
  C      5.66995948     -2.04732825     -4.19806375
  C      6.53526524     -3.10661765     -3.96319325
  C      6.02651895     -4.36252459     -3.65784031
  C      4.65640597     -4.56204294     -3.58933237
  H      4.26500254     -5.54558597     -3.35445603
  H      7.60674210     -2.95437941     -4.01772992
  H      6.69940140     -5.19200337     -3.47435267
  H      3.62410139     -1.40922169     -4.29712490
  H      1.45046826     -8.14197592     -1.55375807
  C      1.50432218     -4.67734592     -5.19786792
  C      0.15722397     -5.03760872     -5.32164838
  C     -0.27915776     -5.75115406     -6.42467480
  C      0.61755040     -6.09870072     -7.42752664
  C      1.95132684     -5.73162627     -7.32129760
  C      2.39565115     -5.02353593     -6.21419011
  H      0.27384215     -6.65284912     -8.29297416
  H      2.65274260     -5.99755106     -8.10351299
  H      3.43954734     -4.74179676     -6.13822418
  H      6.06179741     -1.06579461     -4.43889686
  H     -1.32304876     -6.03196114     -6.50570406
  H     -0.54662562     -4.75729909     -4.54353201
