246
Energy =   -372.43070105 au
 Au      1.06105603      0.33147998     -3.76995804
 Au      3.44493308     -0.17533777     -3.04044775
 Au      1.68534872     -1.58092277      1.30975304
 Au     -1.61020019      2.26755548     -0.25868484
 Au      0.19364604      0.40899018      0.21221422
 Au      2.89136574      0.36899155     -0.19840427
 Au      1.31551289     -1.49160859     -1.47780508
 Au     -2.14238655      0.31050764      1.46546841
  P      0.90225148     -3.53896996     -2.62854106
  C      2.30826928     -3.90065160     -3.71221984
  C      3.31334151     -4.79481354     -3.33669422
  C      4.44778638     -4.94692066     -4.12048664
  C      4.60246672     -4.19825911     -5.27974271
  C      3.61962157     -3.29027242     -5.65213669
  C      2.48486392     -3.13808988     -4.87203548
  H      5.48951438     -4.31907842     -5.89008898
  H      3.20740752     -5.37525649     -2.42696391
  H      1.72135937     -2.42521975     -5.16503901
  H      3.73703853     -2.69754722     -6.55184646
  C     -0.57488411     -3.53849238     -3.69247585
  C     -1.73041464     -2.95975085     -3.16138407
  C     -2.91839674     -2.96711034     -3.87318705
  C     -2.96586349     -3.55714766     -5.12929060
  C     -1.82447809     -4.13743577     -5.66523414
  C     -0.63408535     -4.13284312     -4.95364859
  H      0.24869029     -4.59512834     -5.37980461
  H     -3.89238034     -3.56353348     -5.69104687
  H     -1.85993457     -4.59839570     -6.64547387
  H     -1.68968909     -2.50540016     -2.17699225
  H      5.21267545     -5.65541314     -3.82417573
  C      0.61022635     -5.05351452     -1.65901427
  C      0.22018952     -4.94396735     -0.32476807
  C     -0.11210184     -6.07247998      0.40957008
  C     -0.04440310     -7.32745076     -0.17812693
  C      0.34770176     -7.44926346     -1.50498272
  C      0.66169294     -6.32169814     -2.24627584
  H     -0.29998481     -8.20988822      0.39642188
  H      0.39931039     -8.42744357     -1.96857012
  H      0.94358469     -6.42348941     -3.28823137
  H     -3.80498908     -2.51065263     -3.44801983
  H     -0.42585608     -5.96902503      1.44192557
  H      0.17595645     -3.96401996      0.13973411
  P     -4.12766543     -0.85219205      2.12191031
  C     -4.09155204     -2.60392080      1.62877587
  C     -4.82965106     -3.60092094      2.27251139
  C     -4.75161087     -4.91848423      1.84433256
  C     -3.93825123     -5.25939511      0.77144080
  C     -3.19587811     -4.27816279      0.12835322
  C     -3.26871201     -2.96311516      0.55855830
  H     -3.87921658     -6.28930229      0.43941771
  H     -5.45983659     -3.34546877      3.11668049
  H     -2.67733445     -2.19967908      0.06321468
  H     -2.55461930     -4.53844654     -0.70638511
  C     -5.65608111     -0.18697190      1.38792275
  C     -5.68808919      1.17576286      1.07965489
  C     -6.82095942      1.75224889      0.52670736
  C     -7.93720385      0.96883464      0.26273228
  C     -7.91299183     -0.38861185      0.55375810
  C     -6.78308789     -0.96470084      1.11369860
  H     -6.77586776     -2.02566788      1.33606911
  H     -8.82320741      1.41585158     -0.17242392
  H     -8.78058595     -1.00358202      0.34460798
  H     -4.81216355      1.78706035      1.27015670
  H     -5.33004995     -5.68222395      2.35094176
  C     -4.46728355     -0.89265811      3.90723177
  C     -3.57567329     -1.59126361      4.72772571
  C     -3.70044021     -1.54895647      6.10604036
  C     -4.71518846     -0.79941883      6.68772006
  C     -5.60465056     -0.10056961      5.88394884
  C     -5.48129702     -0.14084373      4.50296961
  H     -4.81033810     -0.75942128      7.76635508
  H     -6.39721167      0.48644111      6.33342426
  H     -6.17567794      0.41655962      3.88482751
  H     -6.83048226      2.81259481      0.30076326
  H     -3.00056485     -2.09658315      6.72707251
  H     -2.78121237     -2.17479949      4.27459142
  P      2.22768176     -3.35007372      2.78254951
  C      3.45358162     -2.99588140      4.07694276
  C      4.36176145     -3.95159725      4.54063356
  C      5.24866466     -3.63647165      5.55844944
  C      5.24224730     -2.36864497      6.12442102
  C      4.35514013     -1.40656552      5.65801866
  C      3.47025864     -1.71702913      4.63677368
  H      5.93178107     -2.12748978      6.92469441
  H      4.37781724     -4.94160238      4.09911466
  H      2.77952475     -0.96458088      4.27064658
  H      4.34497415     -0.41465279      6.09466740
  C      3.00905120     -4.66120289      1.79346486
  C      2.72581614     -6.02127719      1.92375171
  C      3.34081524     -6.94736280      1.09370539
  C      4.24843786     -6.53082494      0.13019784
  C      4.54291401     -5.17934622     -0.00411099
  C      3.92197813     -4.25265828      0.81620872
  H      4.14460199     -3.19608479      0.70360722
  H      4.72774980     -7.25723529     -0.51535788
  H      5.25728095     -4.84690683     -0.74876198
  H      2.01833064     -6.35791986      2.67280681
  H      5.94660707     -4.38618487      5.91243105
  C      0.85293492     -4.16015310      3.65664002
  C     -0.44504532     -3.97363386      3.17270103
  C     -1.52319710     -4.59041644      3.79000758
  C     -1.32228386     -5.38309058      4.91188900
  C     -0.03991622     -5.55870502      5.41358178
  C      1.04190824     -4.95462360      4.79070371
  H     -2.16605067     -5.85971670      5.39669862
  H      0.12127624     -6.17120013      6.29291677
  H      2.03928078     -5.09618403      5.19101907
  H      3.10790462     -8.00039721      1.20130210
  H     -2.52258546     -4.45341274      3.39431199
  H     -0.60964436     -3.33767145      2.30859183
  P     -0.98673203      0.90454359     -4.79029555
  C     -0.83950525      2.50726126     -5.63604916
  C     -1.54410514      2.82391747     -6.80056022
  C     -1.39982974      4.07070771     -7.38978164
  C     -0.54366752      5.01192599     -6.83386838
  C      0.17307318      4.70230834     -5.68564977
  C      0.02510035      3.45908285     -5.08987820
  H     -0.42884930      5.98354625     -7.29958339
  H     -2.19805614      2.08812539     -7.25483345
  H      0.58720556      3.21835509     -4.19305103
  H      0.85171076      5.42875059     -5.25361391
  C     -2.54365998      1.03986591     -3.84979559
  C     -2.67512763      0.30425562     -2.67096476
  C     -3.86798699      0.30843123     -1.96243786
  C     -4.94001537      1.06693361     -2.41065922
  C     -4.81274050      1.82283094     -3.56703510
  C     -3.62594607      1.80916888     -4.28352573
  H     -3.53959715      2.40795490     -5.18246525
  H     -5.87085134      1.07218929     -1.85615809
  H     -5.64259883      2.42638016     -3.91612831
  H     -1.83774676     -0.28561547     -2.31649814
  H     -1.95290089      4.30468286     -8.29193922
  C     -1.38475024     -0.24677340     -6.14039198
  C     -0.30998170     -0.85586279     -6.79378711
  C     -0.52252090     -1.71527586     -7.85897778
  C     -1.81651658     -1.97903839     -8.28880219
  C     -2.89305679     -1.38599730     -7.64330756
  C     -2.68225625     -0.52883907     -6.57326076
  H     -1.98544819     -2.64811559     -9.12418794
  H     -3.90476537     -1.59088481     -7.97374550
  H     -3.53222619     -0.08058006     -6.07165429
  H     -3.96047579     -0.28462690     -1.06008309
  H      0.32256408     -2.17875378     -8.35466395
  H      0.70152756     -0.64565080     -6.46186767
  P      5.15314720      1.14210385     -0.29715115
  C      5.42158911      2.85671977     -0.82863688
  C      5.71311530      3.86393115      0.09547265
  C      5.85059786      5.17974152     -0.31895385
  C      5.69703585      5.51034865     -1.65825579
  C      5.38229997      4.52190067     -2.58244950
  C      5.23015540      3.20746820     -2.16901090
  H      5.81884429      6.53706804     -1.98240618
  H      5.84353523      3.61395277      1.14244023
  H      4.97014388      2.44217309     -2.89318777
  H      5.25518170      4.77415216     -3.62886543
  C      6.00114410      0.13530336     -1.56297828
  C      5.57689661     -1.19187269     -1.72937281
  C      6.17292218     -2.01613916     -2.67578310
  C      7.20143555     -1.52818303     -3.46882730
  C      7.64418915     -0.22366896     -3.29756854
  C      7.05300021      0.60198116     -2.35225788
  H      7.41089457      1.61802834     -2.23350660
  H      7.66261460     -2.16625420     -4.21336823
  H      8.45640591      0.15731665     -3.90564093
  H      4.82171412     -1.59636069     -1.06608595
  H      6.08515487      5.94884852      0.40769379
  C      6.23476627      0.91684376      1.14791734
  C      5.75500357      0.23953921      2.26961807
  C      6.58284888      0.01415276      3.35861448
  C      7.89543401      0.46306836      3.34222359
  C      8.38291737      1.13698401      2.22991402
  C      7.56142607      1.36058639      1.13763596
  H      8.53953243      0.28662662      4.19560278
  H      9.40825889      1.48735534      2.21149576
  H      7.94954816      1.88144868      0.26944859
  H      5.83177133     -3.03924148     -2.78517397
  H      6.20033762     -0.51508963      4.22341059
  H      4.72817566     -0.11315944      2.28702836
  P     -1.98839613      4.46839157     -1.07373169
  C     -3.26626049      4.87693073     -2.30680964
  C     -4.60061133      5.02057211     -1.91721309
  C     -5.58848265      5.25142019     -2.86165705
  C     -5.26175328      5.33748807     -4.20911814
  C     -3.94125324      5.18194892     -4.60872012
  C     -2.95222134      4.94314832     -3.66665099
  H     -6.03447764      5.52579504     -4.94495300
  H     -4.86693847      4.96047007     -0.86757010
  H     -1.92611632      4.81292038     -3.99012848
  H     -3.67591812      5.24554227     -5.65812397
  C     -0.44832375      5.14996158     -1.75338686
  C      0.72251686      4.41186459     -1.56922380
  C      1.94094208      4.88086754     -2.03078391
  C      2.00927416      6.10318736     -2.68517717
  C      0.85257915      6.84678869     -2.88166661
  C     -0.36867178      6.37511837     -2.42331960
  H     -1.26628093      6.95837044     -2.59387299
  H      2.96255571      6.47458715     -3.04288872
  H      0.90108966      7.80089899     -3.39336446
  H      0.67435335      3.45846049     -1.05423195
  H     -6.61796719      5.36877841     -2.54350824
  C     -2.38567077      5.54659764      0.34031442
  C     -3.27193981      5.04586963      1.29896182
  C     -3.61078363      5.79991513      2.41125859
  C     -3.05555180      7.05892958      2.59341121
  C     -2.16197746      7.55958295      1.65718294
  C     -1.82885011      6.81151133      0.53773981
  H     -3.31486186      7.64577445      3.46659191
  H     -1.71957338      8.53909621      1.79683744
  H     -1.12792091      7.21687132     -0.18237466
  H      2.83638858      4.28950369     -1.87930417
  H     -4.30421315      5.40047962      3.14192117
  H     -3.69181451      4.05331446      1.17061475
  P     -0.87481894      0.94122127      3.78645260
  C      0.13022948      0.19770284      5.13451651
  C      0.98216853      0.94184292      5.95702609
  C      1.64836658      0.33411206      7.01050424
  C      1.47838663     -1.02219628      7.25803289
  C      0.65231183     -1.77551769      6.43584531
  C     -0.01250699     -1.16925815      5.38063948
  H      1.99494796     -1.49202159      8.08670198
  H      1.12174586      2.00105891      5.77272738
  H     -0.65298995     -1.76168135      4.73650532
  H      0.52530527     -2.83730422      6.61459096
  C     -2.13659257      1.88560643      4.71813668
  C     -3.23575646      2.36885077      4.00248923
  C     -4.27709957      3.02178839      4.64143762
  C     -4.23807449      3.20706958      6.01679397
  C     -3.15554640      2.73024553      6.74225872
  C     -2.11731660      2.07031653      6.10231590
  H     -1.28949553      1.69301649      6.69080194
  H     -5.05368793      3.71112030      6.52150868
  H     -3.12104664      2.86415137      7.81728980
  H     -3.28063670      2.21200863      2.93012889
  H      2.29709834      0.92497270      7.64683843
  C      0.24711794      2.24481108      3.15492675
  C      1.59139184      1.93658911      2.92195707
  C      2.42560199      2.83036450      2.26617993
  C      1.92723128      4.04333335      1.81034940
  C      0.59459162      4.36206215      2.03365303
  C     -0.23787716      3.47241955      2.69743972
  H      2.57505881      4.73603304      1.28559640
  H      0.19775670      5.30941902      1.68648211
  H     -1.27587366      3.73874387      2.86289462
  H     -5.12911856      3.36857330      4.06781075
  H      3.46954272      2.57808827      2.11442017
  H      1.99211096      0.98763105      3.26321912
