#B3LYP/6-31+G(d) OPT FREQ

246, Energy =   -372.42421710 au

0 1
 Au      1.26808103     -1.80223992      1.17682717
 Au      1.21889783      0.16947510     -0.72363996
 Au      0.49185682     -2.44938456     -1.29509290
 Au     -3.58254975     -0.44155424      0.87299720
 Au      2.18536311      2.38165105     -1.78342132
 Au     -1.73091021     -0.50860866     -1.05739026
 Au     -1.05561869      0.52328070      1.26523635
 Au     -0.44977680      2.18890012     -1.40060486
  P      3.51078399      4.22362147     -2.48758139
  C      4.43630317      3.96612956     -4.02850379
  C      5.08612004      5.01060814     -4.69363317
  C      5.77624289      4.76624345     -5.86995096
  C      5.82290253      3.48293107     -6.39988473
  C      5.17198267      2.44144782     -5.75336368
  C      4.48133874      2.68255256     -4.57592881
  H      6.36341791      3.29621159     -7.32035291
  H      5.04474389      6.01577667     -4.28867948
  H      3.96512475      1.87031941     -4.07366192
  H      5.19926753      1.43959875     -6.16676554
  C      4.71313386      4.86011309     -1.28259730
  C      4.21990885      5.29516666     -0.04658925
  C      5.08455601      5.72760688      0.94589931
  C      6.45576110      5.72216416      0.72319283
  C      6.95601003      5.28617996     -0.49556239
  C      6.09268676      4.85311131     -1.49234306
  H      6.49470233      4.51474129     -2.44034166
  H      7.13265678      6.05818088      1.49973277
  H      8.02486156      5.28407994     -0.67495872
  H      3.14870272      5.29916297      0.13017609
  H      6.27880150      5.58158988     -6.37709062
  C      2.45824289      5.66517937     -2.85187169
  C      1.23785563      5.42284126     -3.48747188
  C      0.37590365      6.46363704     -3.79032604
  C      0.72066551      7.76684254     -3.45683297
  C      1.93064574      8.02088017     -2.82606942
  C      2.79639250      6.97969519     -2.52514240
  H      0.04512679      8.58254173     -3.68602998
  H      2.20420663      9.03662033     -2.56498992
  H      3.73712919      7.19095196     -2.03025739
  H      4.68733191      6.06631197      1.89591244
  H     -0.56887847      6.25620957     -4.28036897
  H      0.96668466      4.40344465     -3.74251749
  P      3.90500270     -1.85453116      1.18709101
  C      5.00616427     -0.49230576      0.64915796
  C      6.05359185     -0.00823812      1.43385169
  C      6.84081824      1.04507959      0.98904323
  C      6.58804724      1.63785426     -0.23922787
  C      5.54207859      1.17215135     -1.02609487
  C      4.75861079      0.11917875     -0.58435225
  H      7.20372639      2.45940339     -0.58537572
  H      6.26372255     -0.46160915      2.39554111
  H      3.95503364     -0.25078968     -1.21237653
  H      5.34431975      1.62295594     -1.99209434
  C      4.13969588     -3.05298267     -0.17821573
  C      3.18728075     -4.06639680     -0.32640824
  C      3.24318819     -4.95976901     -1.38455754
  C      4.25409941     -4.85123811     -2.32935699
  C      5.21509781     -3.85968617     -2.19110089
  C      5.16282495     -2.97167741     -1.12617649
  H      5.92406328     -2.20544836     -1.04012642
  H      4.29384932     -5.53705512     -3.16743324
  H      6.01252866     -3.77220230     -2.92014239
  H      2.39675368     -4.16548947      0.40632009
  H      7.65974142      1.39899227      1.60462917
  C      4.83145361     -2.57790917      2.58716726
  C      4.46797046     -2.17210189      3.87469884
  C      5.13443628     -2.66590833      4.98471769
  C      6.16883129     -3.57785076      4.82171881
  C      6.53257054     -3.99385574      3.54733140
  C      5.86992381     -3.49877678      2.43429020
  H      6.68959074     -3.96761714      5.68837771
  H      7.33916796     -4.70624523      3.41858828
  H      6.15901167     -3.82771694      1.44252491
  H      2.49269554     -5.73811800     -1.46762540
  H      4.84328034     -2.34259020      5.97754271
  H      3.65495835     -1.46337475      4.00096389
  P     -2.26673073      3.71352537     -1.55260496
  C     -2.93376021      3.99758274     -3.21927626
  C     -4.24398631      4.42024541     -3.45770537
  C     -4.67492745      4.66539677     -4.75270787
  C     -3.80813378      4.49645047     -5.82362930
  C     -2.50589848      4.06933696     -5.59909242
  C     -2.07452039      3.81642640     -4.30625281
  H     -4.14800859      4.69261137     -6.83360296
  H     -4.93025224      4.55187969     -2.62909618
  H     -1.06311618      3.46518601     -4.13158189
  H     -1.82578639      3.92921658     -6.43129670
  C     -1.69040195      5.36374297     -1.04595413
  C     -0.45240507      5.48108071     -0.41123378
  C      0.03430555      6.72053732     -0.02706653
  C     -0.71052687      7.86458720     -0.27760672
  C     -1.94168310      7.76279546     -0.91259503
  C     -2.42974564      6.52375846     -1.29591598
  H     -3.38830110      6.45511780     -1.79790177
  H     -0.32994779      8.83545382      0.01679095
  H     -2.52409782      8.65439195     -1.11335128
  H      0.13598555      4.58999744     -0.22071303
  H     -5.69372249      4.99259733     -4.92471071
  C     -3.74250037      3.39667070     -0.53738456
  C     -4.54700607      2.29783901     -0.85962742
  C     -5.64607171      1.97776825     -0.07686445
  C     -5.94174751      2.72965132      1.05389677
  C     -5.14317474      3.81238626      1.38894892
  C     -4.05520959      4.14718822      0.59639953
  H     -6.79834832      2.47246394      1.66573364
  H     -5.37098904      4.40696978      2.26603723
  H     -3.45408818      5.01108113      0.85217556
  H      0.99916340      6.79199886      0.46204061
  H     -6.28356896      1.14850258     -0.35942071
  H     -4.32291737      1.70792481     -1.74202734
  P     -5.70471343     -1.40591621      1.39996888
  C     -6.85838748     -0.56238643      2.52393960
  C     -8.00852267      0.08685389      2.06729231
  C     -8.81905355      0.78613842      2.94976407
  C     -8.49100339      0.85539317      4.29645275
  C     -7.34303300      0.22623113      4.75988148
  C     -6.52999492     -0.46991945      3.88058993
  H     -9.12713488      1.40022366      4.98384252
  H     -8.27867999      0.03853754      1.01869942
  H     -5.63171024     -0.95278739      4.24859061
  H     -7.07837257      0.27890560      5.80967855
  C     -5.53677173     -3.09948749      2.04693616
  C     -4.51344817     -3.87985392      1.50238030
  C     -4.35981500     -5.20520575      1.87220653
  C     -5.22787601     -5.77007871      2.79820695
  C     -6.24284252     -5.00205481      3.35219762
  C     -6.40088687     -3.67486995      2.97967332
  H     -7.20014563     -3.08646007      3.41514289
  H     -5.11171938     -6.80774998      3.08792453
  H     -6.92073176     -5.43887877      4.07625143
  H     -3.83644339     -3.43618779      0.77919952
  H     -9.71225174      1.27697532      2.58111267
  C     -6.67378727     -1.73310875     -0.10669780
  C     -6.16064650     -1.36910528     -1.35170347
  C     -6.86566852     -1.63815126     -2.51499322
  C     -8.09375460     -2.28028903     -2.44816652
  C     -8.61039098     -2.65899919     -1.21548235
  C     -7.90657923     -2.39214150     -0.05263678
  H     -8.64686058     -2.49028999     -3.35601436
  H     -9.56577477     -3.16762521     -1.16001320
  H     -8.31146029     -2.69988373      0.90521776
  H     -3.56023607     -5.79609475      1.43971783
  H     -6.45345915     -1.34600485     -3.47427125
  H     -5.19632829     -0.87528077     -1.40578411
  P      0.24002520     -3.05122294     -3.59025885
  C     -0.84711191     -1.69331226     -4.12852499
  C     -0.43028899     -0.64211388     -4.93974960
  C     -1.26907488      0.43964136     -5.17958621
  C     -2.53142179      0.48882915     -4.60973301
  C     -2.96380820     -0.55425872     -3.79825436
  C     -2.12644320     -1.63598194     -3.55345114
  H     -3.18303975      1.33310701     -4.79935857
  H      0.55616663     -0.66273262     -5.38823868
  H     -2.48585563     -2.47159843     -2.96404359
  H     -3.96078450     -0.53971505     -3.37640078
  C     -0.45891894     -4.55919327     -4.32491724
  C      0.09571180     -5.78396622     -3.93708392
  C     -0.40518238     -6.97357622     -4.44000785
  C     -1.47625101     -6.95682993     -5.32446736
  C     -2.03970158     -5.74748447     -5.70676867
  C     -1.53651940     -4.55335484     -5.21282181
  H     -1.97919584     -3.61352783     -5.52214405
  H     -1.87163754     -7.88725817     -5.71443414
  H     -2.87529094     -5.73114686     -6.39687831
  H      0.92547143     -5.79826222     -3.23782924
  H     -0.92995928      1.24759559     -5.81778248
  C      1.81820431     -2.76500183     -4.44180269
  C      2.63445816     -1.73537985     -3.96050757
  C      3.88237594     -1.50207954     -4.51153913
  C      4.34185828     -2.30344620     -5.54926324
  C      3.54462219     -3.33190675     -6.03174391
  C      2.29162121     -3.56437230     -5.48381344
  H      5.32213330     -2.12835937     -5.97662161
  H      3.90041832     -3.96088091     -6.83944294
  H      1.67902861     -4.37239435     -5.86653886
  H      0.03955493     -7.91530406     -4.13987512
  H      4.50163090     -0.70120258     -4.12300099
  H      2.28499194     -1.11672536     -3.14025613
  P     -0.00675601      1.46129975      3.18541939
  C     -0.55628972      3.13741557      3.63446602
  C     -0.27814530      3.68304526      4.89201058
  C     -0.61045328      4.99756737      5.17480333
  C     -1.20326031      5.79196783      4.20216856
  C     -1.47226894      5.26319469      2.94817576
  C     -1.15843596      3.94186542      2.66723785
  H     -1.45163693      6.82393396      4.42014743
  H      0.20409156      3.07556893      5.64963297
  H     -1.37665266      3.52761738      1.68790325
  H     -1.92161155      5.88646639      2.18395026
  C      1.79633312      1.75373996      3.12907412
  C      2.33947890      2.23127481      1.93606392
  C      3.68398178      2.54576473      1.84069705
  C      4.50887668      2.40544396      2.94769640
  C      3.98029570      1.94420282      4.14466854
  C      2.63393919      1.62496679      4.23957524
  H      2.23659221      1.28439540      5.18819654
  H      5.55968512      2.65946390      2.87702353
  H      4.61673363      1.83772634      5.01543830
  H      1.69610496      2.36857090      1.07541372
  H     -0.39625261      5.40653258      6.15526996
  C     -0.25096177      0.46168287      4.68037522
  C     -1.33332502      0.69036500      5.53409845
  C     -1.54055772     -0.12136115      6.63954354
  C     -0.67202916     -1.16983330      6.90992896
  C      0.39359539     -1.42056375      6.05588765
  C      0.59118554     -0.62529631      4.93889819
  H     -0.82873055     -1.79520620      7.78074211
  H      1.07480298     -2.23899202      6.25759963
  H      1.40723436     -0.84762180      4.25896628
  H      4.08605201      2.90417311      0.90048540
  H     -2.38217539      0.07045987      7.29490281
  H     -2.01371305      1.51061652      5.33422029
  P      0.45106075     -3.69156469      2.61702420
  C      1.51275595     -4.59265919      3.79660441
  C      1.18605980     -4.75856196      5.14527111
  C      2.05778141     -5.40212926      6.01094405
  C      3.26957937     -5.89394003      5.54777909
  C      3.61510098     -5.72151252      4.21453220
  C      2.75399931     -5.06246253      3.35210092
  H      3.94553517     -6.40371583      6.22388217
  H      0.24009745     -4.39160944      5.52533898
  H      3.05409315     -4.90538094      2.32254222
  H      4.56417068     -6.09159091      3.84441668
  C     -0.02566697     -4.93922220      1.36420665
  C     -1.02747716     -4.55521165      0.46342956
  C     -1.40884750     -5.38647672     -0.57782733
  C     -0.79018025     -6.62017703     -0.74003171
  C      0.19611996     -7.01626490      0.15085400
  C      0.57624308     -6.18432233      1.19665967
  H      1.34281867     -6.51727740      1.88616727
  H     -1.08226875     -7.27028696     -1.55624767
  H      0.67561609     -7.98146894      0.03609765
  H     -1.52794380     -3.60279622      0.59885442
  H      1.78350245     -5.52238811      7.05262449
  C     -1.14817684     -3.51746569      3.48418948
  C     -1.75016297     -2.26336565      3.54392197
  C     -2.94412691     -2.07305341      4.22032325
  C     -3.56012790     -3.14652470      4.84705474
  C     -2.98946541     -4.41030576      4.76793297
  C     -1.79733650     -4.59996735      4.08660440
  H     -4.48805643     -3.00254151      5.38788972
  H     -3.47778356     -5.25509587      5.23940532
  H     -1.36754525     -5.59306419      4.01968679
  H     -2.18759289     -5.06911128     -1.26201480
  H     -3.37958430     -1.08154498      4.26808619
  H     -1.26531088     -1.42235188      3.06318948

