#B3LYP/6-31+G(d) OPT FREQ

246, Energy =   -372.46030377 au

0 1
 Au      1.06341983     -0.83978604     -1.43847053
 Au      2.78121790     -0.91362416     -3.51932981
 Au      0.26497109     -1.23158845     -3.97696107
 Au      0.42408080     -2.32875310      0.78451378
 Au     -2.84788977      2.03632996      0.73417988
 Au      1.27527351      0.24658769      0.99472411
 Au     -0.82624263      1.34838591     -0.90309828
 Au     -1.66654605     -0.35462987      0.85883687
  P      2.05023838      1.71116822      2.68795978
  C      1.35960261      3.39325434      2.71867682
  C      1.52806580      4.25671854      3.80579502
  C      0.99017375      5.53421440      3.77250068
  C      0.27483479      5.96638247      2.66288174
  C      0.08915908      5.11151870      1.58572463
  C      0.62507459      3.83452136      1.61843142
  H     -0.14329100      6.96587595      2.64186852
  H      2.07410802      3.92290989      4.68090099
  H      0.47755151      3.16757068      0.77650249
  H     -0.46819788      5.43701563      0.71467674
  C      3.85785894      1.88573300      2.66105545
  C      4.59339789      0.71959342      2.42249387
  C      5.97558409      0.75544997      2.34719574
  C      6.64533346      1.96358015      2.49879403
  C      5.92524631      3.12997272      2.71993488
  C      4.54027170      3.09542349      2.79843992
  H      3.98970175      4.01384462      2.96637053
  H      7.72702280      1.99498311      2.44404869
  H      6.44400369      4.07483469      2.83276893
  H      4.06925693     -0.22161412      2.29221880
  H      1.12775874      6.19602155      4.61959985
  C      1.66065315      1.07177121      4.34589761
  C      0.30670441      0.90824218      4.65673022
  C     -0.08050034      0.37963128      5.87641238
  C      0.88334300     -0.01322223      6.79736732
  C      2.22969759      0.12923627      6.49229547
  C      2.61992284      0.66908540      5.27465296
  H      0.58331684     -0.43308380      7.75012842
  H      2.98391689     -0.17867869      7.20717671
  H      3.67405858      0.78037219      5.04835183
  H      6.52912788     -0.15923576      2.16769391
  H     -1.13405000      0.26386968      6.10400283
  H     -0.44395687      1.19871934      3.92851037
  P     -2.72495470     -1.91022796      2.36741313
  C     -4.00759149     -1.01936163      3.31389382
  C     -5.28033555     -1.52454694      3.58239575
  C     -6.16965543     -0.79961910      4.36245440
  C     -5.80037742      0.42927080      4.89130891
  C     -4.53586142      0.94079869      4.63168603
  C     -3.64993148      0.22111873      3.84736192
  H     -6.49852532      0.99073312      5.50082515
  H     -5.58051003     -2.48599845      3.18241590
  H     -2.66099631      0.61749152      3.64519592
  H     -4.23930403      1.90157415      5.03712559
  C     -1.84608028     -2.73751535      3.73737035
  C     -0.53333898     -2.38004807      4.03991857
  C      0.13179932     -2.96196398      5.10880560
  C     -0.50712981     -3.91508699      5.88821667
  C     -1.82127101     -4.26847755      5.60730847
  C     -2.49120106     -3.67744247      4.54844486
  H     -3.52309592     -3.94453621      4.34978487
  H      0.01384670     -4.37443768      6.71987175
  H     -2.32948977     -5.00299904      6.22103919
  H     -0.03195172     -1.62699048      3.44155469
  H     -7.15661395     -1.20119678      4.56079417
  C     -3.63166948     -3.23321416      1.51620096
  C     -4.69498285     -2.87479951      0.68015000
  C     -5.38130416     -3.83672955     -0.04281998
  C     -5.01751741     -5.17345029      0.05749932
  C     -3.95462350     -5.53919944      0.87144958
  C     -3.25626335     -4.57579149      1.58425148
  H     -5.55848474     -5.92722650     -0.50208406
  H     -3.65991166     -6.57962111      0.95127187
  H     -2.41801242     -4.87357122      2.20343698
  H      1.14969025     -2.66618996      5.33426075
  H     -6.20511783     -3.54269406     -0.68279115
  H     -4.99088630     -1.83352480      0.60985458
  P     -4.16430576      3.75995499      1.70245611
  C     -5.77142323      3.14765598      2.29848226
  C     -6.50970489      3.77875564      3.30246425
  C     -7.73141353      3.26136808      3.70360713
  C     -8.23473249      2.11140267      3.10905388
  C     -7.50722179      1.47248372      2.11425416
  C     -6.28320884      1.98574100      1.71658370
  H     -9.19121646      1.71147088      3.42420038
  H     -6.12674429      4.67558927      3.77547969
  H     -5.70816896      1.47955382      0.94875427
  H     -7.88977004      0.57022760      1.65110332
  C     -4.58906632      5.20957388      0.68974103
  C     -3.63088640      6.20706514      0.48293615
  C     -3.90476338      7.28755448     -0.33960301
  C     -5.13419271      7.38107176     -0.97950220
  C     -6.08512539      6.38551851     -0.79776299
  C     -5.81506638      5.30395421      0.02742996
  H     -6.56446917      4.53286855      0.16674948
  H     -5.34953444      8.22791741     -1.62024353
  H     -7.04457432      6.45258830     -1.29731534
  H     -2.66907143      6.13837241      0.97969714
  H     -8.29439801      3.76001282      4.48395886
  C     -3.36152607      4.46779423      3.17254993
  C     -2.36483427      3.71548725      3.79754415
  C     -1.74926289      4.16777977      4.95332566
  C     -2.11208079      5.39353590      5.49498839
  C     -3.08347145      6.16411170      4.87008962
  C     -3.70649562      5.70760911      3.71845123
  H     -1.63215039      5.75157973      6.39818291
  H     -3.36060324      7.12700243      5.28317300
  H     -4.45706211      6.32242263      3.23520721
  H     -3.15624761      8.05854606     -0.48183491
  H     -0.98071020      3.56593487      5.42549395
  H     -2.06399936      2.76991593      3.35969072
  P      5.12761848     -0.73064797     -3.08687963
  C      5.76931884      0.92125980     -2.65482205
  C      6.13350453      1.27993493     -1.35597608
  C      6.57708342      2.56534799     -1.07971498
  C      6.64225606      3.51706750     -2.08792246
  C      6.26774389      3.17618710     -3.38087838
  C      5.83786248      1.88962948     -3.66195328
  H      6.98635646      4.52060685     -1.86723596
  H      6.08295158      0.55171214     -0.55423020
  H      5.56787158      1.62363905     -4.67822956
  H      6.31735552      3.91249020     -4.17462491
  C      6.20328928     -1.27903024     -4.44241041
  C      5.67746249     -2.19486551     -5.35760022
  C      6.44931996     -2.66721185     -6.40676432
  C      7.75644718     -2.22461571     -6.55947580
  C      8.28820258     -1.31000815     -5.66019317
  C      7.52035355     -0.83887087     -4.60664497
  H      7.94100734     -0.12116995     -3.91146442
  H      8.35979066     -2.58955053     -7.38229576
  H      9.30720897     -0.96049536     -5.77912228
  H      4.65272060     -2.53382455     -5.24146475
  H      6.87894668      2.82035494     -0.06993158
  C      5.64231418     -1.74265042     -1.65854284
  C      4.80499447     -1.77857675     -0.54050319
  C      5.15594800     -2.50712815      0.58396426
  C      6.34693354     -3.22057931      0.60762562
  C      7.17944033     -3.20581430     -0.50272806
  C      6.83151435     -2.47284689     -1.62759320
  H      6.61936541     -3.79193150      1.48730422
  H      8.10705998     -3.76619208     -0.49371349
  H      7.49151052     -2.46776637     -2.48734884
  H      6.02869925     -3.37779036     -7.10884391
  H      4.49387389     -2.52777724      1.44184190
  H      3.86865992     -1.22980512     -0.55482276
  P      0.10185596      2.86586167     -2.50875403
  C      1.46004990      3.80585613     -1.74895243
  C      2.49307699      3.07970414     -1.14582499
  C      3.50967081      3.72826896     -0.46650543
  C      3.51162482      5.11394346     -0.37387526
  C      2.49112134      5.84475881     -0.96455112
  C      1.46948815      5.19734761     -1.64486874
  H      4.30491100      5.62002223      0.16361945
  H      2.49045027      1.99557255     -1.20061116
  H      0.67344340      5.77904267     -2.09502538
  H      2.48424131      6.92609300     -0.89193770
  C     -1.07836595      4.10828706     -3.11749078
  C     -2.34108401      4.20039605     -2.53088266
  C     -3.27885669      5.10441162     -3.00430033
  C     -2.96271128      5.93888795     -4.06706487
  C     -1.70771982      5.86205789     -4.65706502
  C     -0.77298860      4.95110723     -4.19232917
  H      0.19869189      4.88433424     -4.66882450
  H     -3.69553581      6.64558518     -4.43832363
  H     -1.45767002      6.51052961     -5.48859740
  H     -2.59462018      3.54946717     -1.70098002
  H      4.29919412      3.14966007     -0.00259518
  C      0.80358358      2.22909896     -4.06794143
  C     -0.09730671      1.68558383     -4.99022218
  C      0.34768185      1.13633184     -6.18367147
  C      1.70658200      1.11406373     -6.47096023
  C      2.60969123      1.64425447     -5.56007869
  C      2.16655909      2.19587697     -4.36404148
  H      2.05971592      0.68896289     -7.40270404
  H      3.66886964      1.64125739     -5.78710027
  H      2.88807554      2.61245958     -3.67085767
  H     -4.25885011      5.15470059     -2.54411055
  H     -0.36855480      0.73364542     -6.89005267
  H     -1.15880992      1.71355526     -4.77347331
  P     -2.06882297     -1.69259863     -4.27138512
  C     -2.72842412     -1.87303812     -5.95218866
  C     -4.09863596     -1.87317412     -6.23458400
  C     -4.54211921     -2.01781371     -7.53948237
  C     -3.62954539     -2.16183993     -8.57660253
  C     -2.26773388     -2.16083832     -8.30764009
  C     -1.82003231     -2.01609367     -7.00393304
  H     -3.98086844     -2.27251378     -9.59569898
  H     -4.81548465     -1.75467742     -5.42967859
  H     -0.75563500     -2.01313705     -6.79193603
  H     -1.55246336     -2.27026766     -9.11454818
  C     -3.23291873     -0.52944299     -3.47953684
  C     -3.75188962     -0.73029383     -2.20026451
  C     -4.56285459      0.22991996     -1.61114607
  C     -4.84785496      1.41517832     -2.27436903
  C     -4.33414199      1.62754168     -3.54736174
  C     -3.53997507      0.66299631     -4.14540833
  H     -3.16777570      0.82548433     -5.15095705
  H     -5.47644035      2.16347969     -1.80598693
  H     -4.55750209      2.54571774     -4.07826761
  H     -3.53890735     -1.64778360     -1.66296723
  H     -5.60575405     -2.01736646     -7.74778642
  C     -2.38828026     -3.28401255     -3.44745791
  C     -1.79436506     -3.48886044     -2.19801212
  C     -1.89940701     -4.70789484     -1.55239119
  C     -2.59385515     -5.75132248     -2.15036929
  C     -3.19328517     -5.56034002     -3.38681630
  C     -3.09173939     -4.33667932     -4.03329109
  H     -2.66230130     -6.71164422     -1.65248838
  H     -3.73715253     -6.37126939     -3.85727170
  H     -3.55527164     -4.20404983     -5.00402095
  H     -4.98097224      0.04564384     -0.62846468
  H     -1.43390837     -4.84502059     -0.58274519
  H     -1.23228338     -2.68471055     -1.73485108
  P      1.30679251     -4.51174292      1.25636928
  C      0.31765897     -6.02356258      1.46210653
  C      0.07201762     -6.88972810      0.39393602
  C     -0.78263862     -7.97062398      0.55074208
  C     -1.40687285     -8.19761162      1.77004688
  C     -1.17067932     -7.34110479      2.83821162
  C     -0.32143888     -6.25624164      2.68528560
  H     -2.07195447     -9.04445089      1.89061287
  H      0.56090042     -6.72360980     -0.55942755
  H     -0.14101698     -5.59047122      3.52265197
  H     -1.65124122     -7.51604390      3.79390700
  C      2.39206021     -4.46221881      2.71351652
  C      2.80474344     -3.21194494      3.18172936
  C      3.65191798     -3.10403445      4.27377032
  C      4.09652283     -4.25053516      4.91900191
  C      3.68762331     -5.49883611      4.46952934
  C      2.84266367     -5.60784858      3.37524584
  H      2.52438736     -6.58719097      3.03676730
  H      4.75616379     -4.17023838      5.77490905
  H      4.02841567     -6.39527262      4.97429792
  H      2.44234399     -2.31435614      2.69151981
  H     -0.95861724     -8.64025110     -0.28315726
  C      2.43538641     -4.85809512     -0.13196341
  C      2.04342829     -4.44630487     -1.40917935
  C      2.88984435     -4.59703409     -2.49547410
  C      4.14591922     -5.16267275     -2.32227660
  C      4.54106319     -5.58935619     -1.06205538
  C      3.69529392     -5.43790767      0.02677523
  H      4.81571810     -5.26862210     -3.16759559
  H      5.51972733     -6.03338393     -0.92138681
  H      4.02328751     -5.76237440      1.00769497
  H      3.95915288     -2.12411434      4.62184431
  H      2.56942513     -4.26646415     -3.47709610
  H      1.06579207     -3.99837829     -1.54963133

