246
Energy =   -372.45645894 au
 Au      2.80057540      0.50171349     -0.24110316
 Au     -1.10245595      1.05655581      2.81132015
 Au      2.68316913     -1.78329571      1.26314701
 Au     -0.11469137     -0.42107274     -3.08448419
 Au      0.36468767     -0.16508180      1.02880925
 Au     -1.67646760      1.30549164      0.17203558
 Au     -1.45174755     -1.37549653     -1.11838885
 Au      1.45658094     -1.67853812     -1.14709629
  P     -3.07157194     -2.41827764      0.32526344
  C     -2.98643348     -4.23403520      0.26072995
  C     -3.45126560     -5.05693742      1.29074499
  C     -3.32679411     -6.43527893      1.19762958
  C     -2.74129210     -7.01041824      0.07749525
  C     -2.27847764     -6.20252437     -0.95254987
  C     -2.39448773     -4.82447552     -0.85861851
  H     -2.64474874     -8.08745651      0.00757066
  H     -3.91023838     -4.61675410      2.16869898
  H     -2.02201122     -4.19465968     -1.65988728
  H     -1.82568084     -6.64661193     -1.83159346
  C     -4.75767535     -1.98989563     -0.20595672
  C     -5.05059400     -0.63081062     -0.35670675
  C     -6.29947379     -0.21796414     -0.78925765
  C     -7.27250965     -1.16198830     -1.09345437
  C     -6.98952303     -2.51380785     -0.95987432
  C     -5.74099184     -2.92885146     -0.51929865
  H     -5.52941751     -3.98717968     -0.41872638
  H     -8.24812421     -0.84175919     -1.43963028
  H     -7.74505605     -3.25262609     -1.20064750
  H     -4.28427694      0.10632313     -0.13503309
  H     -3.69155135     -7.06221837      2.00299225
  C     -3.10867266     -2.08217810      2.12087016
  C     -1.89620348     -2.12094186      2.81342571
  C     -1.84619693     -1.88832095      4.17912052
  C     -3.01543548     -1.61307558      4.87687594
  C     -4.22536623     -1.56103460      4.19987043
  C     -4.27419973     -1.79189638      2.83197299
  H     -2.97979674     -1.44652766      5.94688089
  H     -5.14048008     -1.34260414      4.73798281
  H     -5.22692439     -1.75277073      2.31706096
  H     -6.50945603      0.83966164     -0.90351236
  H     -0.89662738     -1.93700241      4.69892609
  H     -0.98477706     -2.35039115      2.27480184
  P      1.88119093     -3.87325387     -2.20290251
  C      3.31222857     -3.81546705     -3.33296295
  C      4.06908334     -2.64420536     -3.40595974
  C      5.15518150     -2.55505379     -4.26336266
  C      5.49460946     -3.63336005     -5.06794907
  C      4.74728825     -4.80271041     -5.00775134
  C      3.66488917     -4.89578762     -4.14759518
  H      6.33950793     -3.56261047     -5.74271295
  H      3.79976357     -1.79586511     -2.78566675
  H      3.08750734     -5.81255785     -4.11076279
  H      5.00828281     -5.64753578     -5.63449419
  C      0.63755097     -4.76285181     -3.20445663
  C     -0.25797439     -4.00814422     -3.96472114
  C     -1.19584622     -4.61981751     -4.78049864
  C     -1.25262876     -6.00505034     -4.85014591
  C     -0.36736786     -6.76956323     -4.10177474
  C      0.57219478     -6.15698208     -3.28515530
  H      1.25540928     -6.76805107     -2.70700625
  H     -1.98400060     -6.48803654     -5.48720179
  H     -0.40246390     -7.85137986     -4.15726040
  H     -0.21227755     -2.92493219     -3.92277258
  H      5.73238537     -1.63843522     -4.30624911
  C      2.39102729     -5.07342614     -0.93266167
  C      1.43219503     -5.79608438     -0.21600446
  C      1.81433911     -6.63817452      0.81683274
  C      3.15162663     -6.74500689      1.17424840
  C      4.10874513     -6.00867339      0.48875306
  C      3.73276917     -5.17970554     -0.55682007
  H      3.44667005     -7.40067738      1.98499217
  H      5.15475102     -6.08728706      0.76195602
  H      4.48740973     -4.61405482     -1.09200780
  H     -1.87822554     -4.01342970     -5.36512879
  H      1.06245705     -7.20921804      1.34917415
  H      0.38179342     -5.70276865     -0.47169369
  P     -2.75785656      2.72231455     -1.37734401
  C     -4.01959859      2.05860147     -2.51453811
  C     -5.22723073      2.70628672     -2.78284226
  C     -6.13664127      2.15182232     -3.67211552
  C     -5.85605549      0.94917384     -4.30520065
  C     -4.65839055      0.29561135     -4.04526545
  C     -3.75198187      0.84684892     -3.15577639
  H     -6.56978855      0.51948494     -4.99798601
  H     -5.45884447      3.64646628     -2.29640808
  H     -2.82186447      0.32833023     -2.94874561
  H     -4.43166701     -0.64650807     -4.53095977
  C     -1.53483090      3.43130746     -2.52238037
  C     -0.19533051      3.05992828     -2.39997719
  C      0.76745749      3.58167021     -3.24913229
  C      0.40413273      4.48957108     -4.23323889
  C     -0.92751583      4.85789445     -4.37477526
  C     -1.89342207      4.32744034     -3.53395733
  H     -2.93338841      4.60488006     -3.66538858
  H      1.15558222      4.90264063     -4.89569499
  H     -1.21685679      5.55682981     -5.15075694
  H      0.09465051      2.36301512     -1.62217121
  H     -7.06986971      2.66570188     -3.87107162
  C     -3.57636636      4.13000504     -0.57150680
  C     -4.60843036      3.83043618      0.32477969
  C     -5.25124130      4.83583594      1.02703234
  C     -4.86470312      6.15911895      0.85317715
  C     -3.83164164      6.46685973     -0.02087069
  C     -3.18865345      5.46109453     -0.72818534
  H     -5.36833618      6.94803810      1.39911568
  H     -3.52375265      7.49710424     -0.15711390
  H     -2.38692274      5.71595980     -1.41126177
  H      1.80347476      3.28153895     -3.13736843
  H     -6.05465167      4.58580570      1.71076425
  H     -4.90760449      2.79751964      0.46797435
  P      0.84766557      0.21424016     -5.17579600
  C      2.63308557      0.56879082     -5.18554698
  C      3.40121374      0.53404496     -6.35380356
  C      4.76900257      0.75271448     -6.30255397
  C      5.39505186      0.98616032     -5.08493116
  C      4.64577536      1.00502868     -3.91604029
  C      3.27456788      0.80889826     -3.96981974
  H      6.46611045      1.14603558     -5.04513848
  H      2.92668646      0.31763821     -7.30410002
  H      2.69270643      0.82659916     -3.05335577
  H      5.13061959      1.16662110     -2.96029238
  C      0.02263673      1.55922804     -6.08158151
  C     -1.36382202      1.65926746     -5.92717168
  C     -2.08240096      2.63622997     -6.59681480
  C     -1.42265254      3.53769001     -7.42212243
  C     -0.04366834      3.46193161     -7.56492880
  C      0.67720369      2.48134435     -6.89931739
  H      1.75364786      2.43660319     -7.01716657
  H     -1.98211350      4.30188902     -7.94856569
  H      0.47572520      4.16993662     -8.20029905
  H     -1.87884074      0.96693522     -5.26889927
  H      5.35131076      0.72791841     -7.21623037
  C      0.73271179     -1.21460642     -6.29898421
  C      1.66211961     -2.24996716     -6.15347643
  C      1.54131034     -3.41707157     -6.88934145
  C      0.48311908     -3.57400862     -7.77482651
  C     -0.44870295     -2.55565902     -7.92262119
  C     -0.32969770     -1.38506641     -7.18805243
  H      0.38430706     -4.48873737     -8.34723275
  H     -1.27547239     -2.67218270     -8.61380010
  H     -1.06507992     -0.59786633     -7.31121444
  H     -3.15734105      2.69662273     -6.46981184
  H      2.27287946     -4.20754353     -6.76398791
  H      2.48691487     -2.13489369     -5.45896460
  P      2.81319378     -2.63190531      3.48611051
  C      4.38798558     -3.05570621      4.28351724
  C      5.01377134     -2.20768444      5.19974179
  C      6.25235886     -2.54163760      5.72634692
  C      6.88201160     -3.71700856      5.34087197
  C      6.27233528     -4.56095848      4.42121021
  C      5.03686469     -4.23099716      3.88929745
  H      7.84922568     -3.97546104      5.75536698
  H      4.52575846     -1.28970440      5.50783540
  H      4.56342660     -4.88856039      3.16708419
  H      6.76204070     -5.47830335      4.11563382
  C      1.75002193     -4.08099061      3.75609887
  C      0.73706660     -4.33560093      2.82976458
  C     -0.17086303     -5.36218270      3.03641227
  C     -0.06198210     -6.16705252      4.16231866
  C      0.96421711     -5.94816250      5.07173880
  C      1.86317084     -4.91107460      4.87550263
  H      2.66293401     -4.74960237      5.58921839
  H     -0.77065900     -6.97055952      4.32491317
  H      1.06280266     -6.58527933      5.94287016
  H      0.67141358     -3.72822163      1.93303087
  H      6.72612161     -1.87992924      6.44223678
  C      2.06860477     -1.36370659      4.56649692
  C      2.13484077     -0.03027918      4.15800263
  C      1.56363294      0.97839963      4.91907315
  C      0.91800330      0.66680115      6.10807060
  C      0.84356453     -0.65432048      6.52660062
  C      1.41224222     -1.66371383      5.76294237
  H      0.47608606      1.45376669      6.70739229
  H      0.34030922     -0.90199922      7.45406291
  H      1.34778368     -2.69076793      6.10330145
  H     -0.96281566     -5.53464556      2.31655795
  H      1.64213297      2.00856135      4.59114489
  H      2.65143566      0.22008917      3.23889159
  P      3.63632959      2.71078401      0.15059272
  C      5.08922856      3.37024596     -0.72106309
  C      4.96847911      3.66467707     -2.08463864
  C      6.05962041      4.12195267     -2.80604206
  C      7.29009659      4.27811952     -2.18124200
  C      7.42310375      3.97779641     -0.83296451
  C      6.33262706      3.52527163     -0.10536937
  H      8.14429914      4.63205431     -2.74615070
  H      4.01137022      3.53703393     -2.58009625
  H      6.44797712      3.29654185      0.94777324
  H      8.38165156      4.09689619     -0.34146716
  C      4.08722295      2.71880515      1.91329878
  C      4.82224997      1.63330980      2.40159091
  C      5.16179034      1.55347989      3.74278346
  C      4.75611577      2.54983907      4.62120870
  C      4.01899270      3.62770760      4.14979489
  C      3.68904585      3.71599245      2.80518935
  H      3.11683982      4.56480584      2.44877749
  H      5.01143468      2.48407831      5.67221168
  H      3.70097617      4.40830708      4.83126760
  H      5.12756895      0.84638998      1.71984470
  H      5.94853580      4.35206914     -3.85946529
  C      2.37742274      4.02271316      0.03148765
  C      1.10950489      3.73995713      0.54715511
  C      0.08944833      4.67374670      0.48170144
  C      0.32112276      5.91304504     -0.10047105
  C      1.57473439      6.20715949     -0.61638688
  C      2.59694936      5.27136322     -0.55263644
  H     -0.47289254      6.64894377     -0.14570596
  H      1.76196776      7.17349275     -1.06989064
  H      3.57231941      5.52016512     -0.95344109
  H      5.73603145      0.70778562      4.10364554
  H     -0.88707851      4.43225202      0.88566194
  H      0.92653240      2.77701515      1.01053900
  P     -2.36488375      2.43671888      4.30274247
  C     -2.26361833      2.40687068      6.12287697
  C     -1.38635801      3.22841659      6.83518725
  C     -1.28415961      3.11767122      8.21436042
  C     -2.04665813      2.18193790      8.89965419
  C     -2.91827646      1.35719254      8.20100404
  C     -3.02402266      1.46528755      6.82386821
  H     -1.96462732      2.09785003      9.97676416
  H     -0.79113374      3.96918333      6.31345738
  H     -3.71346563      0.82485810      6.28480883
  H     -3.52044515      0.62760883      8.72998546
  C     -4.15205651      2.33753483      3.98454108
  C     -4.60593819      1.55446536      2.92222600
  C     -5.95970578      1.45336384      2.64004401
  C     -6.88218151      2.14150967      3.41611651
  C     -6.44560432      2.91819689      4.48162432
  C     -5.09311872      3.01266756      4.76971125
  H     -4.76337345      3.60620454      5.61483047
  H     -7.94054578      2.06542999      3.19652524
  H     -7.16326870      3.44974313      5.09552526
  H     -3.88862941      1.01077413      2.31687253
  H     -0.60676140      3.76900762      8.75437503
  C     -1.89811737      4.14414957      3.87298852
  C     -0.53080059      4.42774213      3.78681327
  C     -0.08843880      5.70227407      3.47039605
  C     -1.00755580      6.71103802      3.21312150
  C     -2.36625928      6.43520318      3.27145176
  C     -2.81067285      5.16304141      3.59996717
  H     -0.66461362      7.70735998      2.96036608
  H     -3.08824314      7.21577005      3.06107219
  H     -3.87534443      4.96347222      3.63713998
  H     -6.29359890      0.83195267      1.81662241
  H      0.97505167      5.90498847      3.41394885
  H      0.19089499      3.63633418      3.96026303
