#B3LYP/6-31+G(d) OPT FREQ

246, Energy =   -372.46234041 au

0 1
 Au      1.44543493      1.63675215      1.54288917
 Au     -2.61461404     -0.70945611      0.86953452
 Au     -0.64562324      0.18704801      3.01264467
 Au     -0.18842701      0.10286793      0.10842747
 Au      1.08823550     -1.68624448     -1.31146109
 Au     -1.72686352     -1.24240063     -1.65781620
 Au     -1.58274734      2.08653427      1.53872136
 Au      2.10109068      0.93346859     -1.05932283
  P     -4.56254668     -0.86735952      2.24195884
  C     -6.21348918     -0.53621681      1.54934469
  C     -6.51696200     -1.10999139      0.31169743
  C     -7.77619924     -0.95401507     -0.24496929
  C     -8.74410138     -0.21210990      0.41991953
  C     -8.44720156      0.37220528      1.64362267
  C     -7.19225751      0.20842220      2.21052982
  H     -9.72820398     -0.08931481     -0.01666519
  H     -5.76052757     -1.68388080     -0.21505158
  H     -6.97403834      0.65955135      3.17162755
  H     -9.19888847      0.95317446      2.16521595
  C     -4.31300341      0.39946794      3.51664515
  C     -4.43245401      1.74420134      3.14410686
  C     -4.07246477      2.75647758      4.02029801
  C     -3.57901413      2.44222836      5.28049711
  C     -3.44712275      1.11297177      5.65696796
  C     -3.79808477      0.09716657      4.77841471
  H     -3.67742190     -0.93767922      5.07894575
  H     -3.29690192      3.23259300      5.96601213
  H     -3.06959775      0.86192323      6.64157616
  H     -4.82209109      1.99490233      2.16322916
  H     -8.00068716     -1.41139165     -1.20186845
  C     -4.81606399     -2.43600181      3.12397101
  C     -4.11428433     -3.56210051      2.69098499
  C     -4.33428082     -4.79793922      3.27957859
  C     -5.24763624     -4.91889500      4.31790357
  C     -5.94479482     -3.80238349      4.76224120
  C     -5.73989442     -2.56917897      4.16504013
  H     -5.41983799     -5.88442738      4.77878375
  H     -6.65948719     -3.89534622      5.57163280
  H     -6.30120718     -1.70466358      4.50193428
  H     -4.17890734      3.79206667      3.71769442
  H     -3.79251423     -5.66710809      2.92462346
  H     -3.39525669     -3.46506958      1.88389350
  P      3.62960722      1.80312405     -2.67547468
  C      4.42155065      3.39018728     -2.26662567
  C      5.61485493      3.83046775     -2.84411377
  C      6.14536748      5.06441609     -2.49908605
  C      5.49571774      5.87323408     -1.57628069
  C      4.31711193      5.43903391     -0.98446292
  C      3.78910738      4.20397338     -1.32312824
  H      5.91298158      6.83737623     -1.31078541
  H      6.13440373      3.20277544     -3.55922327
  H      2.88101775      3.85579876     -0.84190052
  H      3.81225312      6.05744997     -0.25085129
  C      2.77636562      2.11016279     -4.25530576
  C      1.75452092      1.22454798     -4.60913991
  C      1.05630397      1.38287440     -5.79420753
  C      1.35146875      2.44845405     -6.63469077
  C      2.34982631      3.34736123     -6.28523864
  C      3.06222817      3.17950597     -5.10651305
  H      3.83984196      3.88760026     -4.84405342
  H      0.79949429      2.57996418     -7.55797502
  H      2.57952067      4.18355850     -6.93535959
  H      1.50316890      0.40750959     -3.94037657
  H      7.07170635      5.39546555     -2.95390174
  C      5.00558804      0.70288098     -3.13199332
  C      5.49287709     -0.16662061     -2.15276768
  C      6.55027973     -1.01906196     -2.42818161
  C      7.12560546     -1.02409840     -3.69206967
  C      6.63935901     -0.17549325     -4.67716254
  C      5.58586427      0.68355435     -4.40217306
  H      7.94951381     -1.69333095     -3.90999875
  H      7.08243179     -0.18135407     -5.66625206
  H      5.20716416      1.33719631     -5.17980143
  H      0.27460519      0.67972331     -6.05719286
  H      6.92807278     -1.67939537     -1.65597824
  H      5.03222476     -0.17350214     -1.16994367
  P      2.92488021      3.04032831      2.78247142
  C      2.23804882      4.71835047      2.90862019
  C      2.43281594      5.56006287      4.00565085
  C      1.85705497      6.82191393      4.02948934
  C      1.08360940      7.26018703      2.96342486
  C      0.88208716      6.43090362      1.86733603
  C      1.45187178      5.16907230      1.84450687
  H      0.63446462      8.24614499      2.98684161
  H      3.03051998      5.22425238      4.84525996
  H      1.28468057      4.51599823      0.99424171
  H      0.27448045      6.76406367      1.03363946
  C      4.53807925      3.27085250      1.97083296
  C      5.03633380      2.23411069      1.17868508
  C      6.25859194      2.35754416      0.53744725
  C      6.99884592      3.52362444      0.67599992
  C      6.51321235      4.56212058      1.45941244
  C      5.29167628      4.43982480      2.10368487
  H      4.91769102      5.25734049      2.70974066
  H      7.95149346      3.62474160      0.16948692
  H      7.08742023      5.47493502      1.56714484
  H      4.45572438      1.32445574      1.06514271
  H      2.01386621      7.46607902      4.88690996
  C      3.35050705      2.57900249      4.48931713
  C      2.30483872      2.38711087      5.39825878
  C      2.56836415      1.98571567      6.69733246
  C      3.87533428      1.74772017      7.10303940
  C      4.91892037      1.92205303      6.20514787
  C      4.66042016      2.33466847      4.90622268
  H      4.07780714      1.42715985      8.11812546
  H      5.94102211      1.73983916      6.51631632
  H      5.48279548      2.47004419      4.21349843
  H      6.63090232      1.54490490     -0.07622130
  H      1.75087317      1.85284801      7.39612379
  H      1.28074263      2.55932831      5.08163212
  P     -2.61420300      3.68179131      0.08397879
  C     -4.20129384      3.03788521     -0.52679399
  C     -5.43810885      3.43807646     -0.01869417
  C     -6.60678647      2.84070679     -0.46996822
  C     -6.55569500      1.83266761     -1.42178225
  C     -5.32819499      1.40212720     -1.90928570
  C     -4.16175436      1.99663995     -1.46037457
  H     -7.47080478      1.37492788     -1.77790249
  H     -5.48944986      4.22851528      0.72136503
  H     -3.20346564      1.65911727     -1.84152414
  H     -5.28021776      0.60163678     -2.63969827
  C     -1.74085495      4.09240028     -1.46711952
  C     -0.36314272      3.88443793     -1.54343302
  C      0.33898654      4.19939759     -2.69578489
  C     -0.32407705      4.73431303     -3.79061018
  C     -1.69578900      4.94622570     -3.72831699
  C     -2.40090483      4.62252993     -2.57903202
  H     -3.47313684      4.77811618     -2.54859450
  H      0.22644695      4.98240395     -4.69072954
  H     -2.21954702      5.37109157     -4.57673701
  H      0.16260792      3.46742684     -0.69135533
  H     -7.56227937      3.16609423     -0.07507033
  C     -2.97394419      5.29628614      0.83624627
  C     -2.42712785      5.55876570      2.09491815
  C     -2.64229133      6.77685849      2.72057916
  C     -3.40825607      7.75036114      2.09460011
  C     -3.95566943      7.50210311      0.84235205
  C     -3.74030696      6.28604580      0.21378709
  H     -3.57860599      8.70330950      2.58147826
  H     -4.55346120      8.26102113      0.35111515
  H     -4.16900420      6.10464399     -0.76520445
  H      1.40821158      4.02809396     -2.73964332
  H     -2.21000597      6.96485936      3.69669485
  H     -1.82464462      4.79881970      2.58215827
  P      0.47960151     -1.48193413      4.30392021
  C      2.22572729     -1.39178454      3.79248976
  C      3.27651435     -1.11887171      4.66797891
  C      4.56773836     -0.95080758      4.18799966
  C      4.82969624     -1.04009915      2.82841042
  C      3.79068178     -1.30382989      1.94517123
  C      2.50254103     -1.47612556      2.42373970
  H      5.83767101     -0.89990310      2.45609063
  H      3.08711664     -1.02717880      5.73128342
  H      1.69616617     -1.67030636      1.72498680
  H      3.98016214     -1.37359494      0.87980652
  C      0.02050320     -3.23866961      4.14809099
  C     -1.07842110     -3.68686961      4.88931608
  C     -1.51135718     -4.99819436      4.78596328
  C     -0.87332907     -5.87576560      3.91880440
  C      0.20185070     -5.43401110      3.16106458
  C      0.65026464     -4.12646309      3.27437484
  H      1.50347141     -3.80561722      2.68731356
  H     -1.21239516     -6.90162176      3.83614304
  H      0.70202987     -6.11404475      2.48085926
  H     -1.58776704     -3.00403593      5.56129729
  H      5.37187180     -0.73795122      4.88278023
  C      0.47880229     -1.21693820      6.09895570
  C     -0.14788130     -0.07541502      6.60135733
  C     -0.19325455      0.16446471      7.96669824
  C      0.39409026     -0.73435408      8.84674098
  C      1.01964736     -1.87466555      8.35889295
  C      1.05868569     -2.12086140      6.99583908
  H      0.36066071     -0.54867762      9.91379460
  H      1.47537459     -2.57904664      9.04497739
  H      1.53360357     -3.02103537      6.62180646
  H     -2.35068675     -5.33503510      5.38309529
  H     -0.69190161      1.05035063      8.34270906
  H     -0.60359594      0.62681671      5.91104901
  P      2.19865908     -3.61755617     -2.05489637
  C      3.31585518     -3.41343138     -3.47168406
  C      4.40769317     -4.25184565     -3.71397246
  C      5.21205218     -4.04769370     -4.82475008
  C      4.94142461     -3.00860732     -5.70497915
  C      3.86553370     -2.16334968     -5.46846337
  C      3.06211089     -2.36423951     -4.35794559
  H      5.57342321     -2.85290279     -6.57130417
  H      4.63414476     -5.05905006     -3.02688783
  H      2.22903087     -1.69703333     -4.16492633
  H      3.65565634     -1.34216149     -6.14426603
  C      1.08240309     -4.98740035     -2.48902173
  C     -0.23269113     -4.94575114     -2.02055392
  C     -1.12334188     -5.96478074     -2.31701511
  C     -0.71070244     -7.04176128     -3.08934683
  C      0.59364412     -7.09342547     -3.56312357
  C      1.48587863     -6.07477576     -3.26770986
  H      2.49946433     -6.12200632     -3.64886308
  H     -1.40666111     -7.83756641     -3.32697283
  H      0.91819657     -7.93101241     -4.16945387
  H     -0.55965716     -4.10125462     -1.42263686
  H      6.05590531     -4.70403904     -5.00277659
  C      3.24512102     -4.28594610     -0.73026607
  C      4.48978619     -3.69859302     -0.48314480
  C      5.25974634     -4.10631996      0.59454175
  C      4.79170753     -5.09564629      1.44926447
  C      3.55329659     -5.67852557      1.21820579
  C      2.78062647     -5.27456736      0.13966012
  H      5.39249466     -5.41254592      2.29346417
  H      3.18738455     -6.45557447      1.87943067
  H      1.81431778     -5.73495015     -0.03375870
  H     -2.14206253     -5.91356876     -1.94942784
  H      6.22653364     -3.64794286      0.76850786
  H      4.85680873     -2.92376020     -1.14747114
  P     -2.72332748     -1.82983669     -3.74648528
  C     -4.46310735     -2.31825048     -3.55377036
  C     -5.52832217     -1.70669566     -4.21632510
  C     -6.83311075     -2.10473665     -3.96246686
  C     -7.09221559     -3.11060752     -3.04171573
  C     -6.04075946     -3.71147604     -2.35948691
  C     -4.73772570     -3.31292350     -2.60799674
  H     -8.11124832     -3.42913764     -2.85649496
  H     -5.33956700     -0.92250487     -4.94032296
  H     -3.91787779     -3.77593685     -2.06749450
  H     -6.23749044     -4.49125883     -1.63276793
  C     -1.94790115     -3.17461143     -4.69933083
  C     -0.58918196     -3.02950713     -4.99728944
  C      0.08457620     -4.00328478     -5.71421463
  C     -0.58896305     -5.14291792     -6.13621086
  C     -1.93463745     -5.30109652     -5.83739692
  C     -2.61364091     -4.32466119     -5.12250420
  H     -3.66525497     -4.45699385     -4.89612323
  H     -0.06240647     -5.90821080     -6.69414232
  H     -2.46235701     -6.18996816     -6.16309463
  H     -0.06262532     -2.14023403     -4.66347480
  H     -7.65065921     -1.62786024     -4.49057908
  C     -2.71763423     -0.46941962     -4.95215135
  C     -2.26985733      0.78890699     -4.54868922
  C     -2.24106494      1.84823924     -5.44250672
  C     -2.65444669      1.66182631     -6.75426071
  C     -3.08816000      0.41003451     -7.17178761
  C     -3.11696282     -0.65050791     -6.28047586
  H     -2.63192691      2.48994320     -7.45291963
  H     -3.40283227      0.25868194     -8.19775398
  H     -3.44273538     -1.62887815     -6.61579615
  H      1.13742513     -3.87532364     -5.93969323
  H     -1.88948643      2.81918807     -5.11343842
  H     -1.93245208      0.93265009     -3.52745273

