#B3LYP/6-31+G(d) OPT FREQ

246, Energy =   -372.45937369 au

0 1
 Au      0.96770123      3.09265508      0.90708660
 Au      1.74936037      0.77121823     -0.39520107
 Au      1.30872081     -1.01464081     -2.26644845
 Au      1.07419351     -1.71768777      0.32599114
 Au     -1.16681744      1.43322455     -0.91992764
 Au     -0.69690628      0.55414308      1.51607291
 Au     -2.98798919     -0.08910317      0.28811424
 Au      3.46300090      2.39880991      0.89594394
  P     -0.86137918      2.33956477     -3.11275043
  C      0.89298014      2.17629085     -3.56535852
  C      1.34950202      1.24656284     -4.50094526
  C      2.71097545      1.05615227     -4.70065317
  C      3.63429330      1.78851216     -3.96872802
  C      3.19348099      2.71902651     -3.03671667
  C      1.83539693      2.90627392     -2.83255817
  H      4.69600592      1.63276624     -4.11963199
  H      0.63811542      0.67496210     -5.08502508
  H      1.49783437      3.62452609     -2.09373389
  H      3.90850402      3.29559048     -2.46061245
  C     -1.31847807      4.04566793     -3.56197875
  C     -2.66636262      4.39396637     -3.41681554
  C     -3.10660693      5.66406714     -3.75063722
  C     -2.20829847      6.60297556     -4.24149642
  C     -0.87218880      6.26401652     -4.39812418
  C     -0.42515686      4.99574827     -4.05636805
  H      0.62091720      4.74512658     -4.18747052
  H     -2.55163408      7.59597949     -4.50620430
  H     -0.16967015      6.98991840     -4.79077825
  H     -3.37447070      3.65195159     -3.06187170
  H      3.04659579      0.32828361     -5.43074730
  C     -1.78273302      1.40742135     -4.37561915
  C     -2.57388867      0.32456835     -3.99159765
  C     -3.35360041     -0.34802989     -4.92013897
  C     -3.34922281      0.05172220     -6.24943685
  C     -2.56129680      1.12559660     -6.64632109
  C     -1.78625454      1.80176081     -5.71817351
  H     -3.96299710     -0.46896585     -6.97491115
  H     -2.55908960      1.44370709     -7.68234744
  H     -1.18558057      2.64837479     -6.03162178
  H     -4.15332759      5.91961922     -3.63365118
  H     -3.96977898     -1.18159045     -4.60290279
  H     -2.58125838      0.01032428     -2.95351626
  P      5.80137042      1.96606777      0.79242698
  C      6.90935781      3.35876830      0.43421554
  C      8.25626802      3.37892923      0.80535117
  C      9.04715882      4.47618821      0.50185711
  C      8.50761997      5.56200109     -0.17447922
  C      7.16957150      5.55282807     -0.54605539
  C      6.37405643      4.46104686     -0.23891696
  H      9.12890832      6.41839134     -0.40868440
  H      8.68345287      2.53447535      1.33411710
  H      5.32506144      4.45639082     -0.51936873
  H      6.74348148      6.40037830     -1.07047387
  C      5.98402858      0.85677890     -0.64092415
  C      5.22173299     -0.31595002     -0.65753144
  C      5.23097084     -1.15153474     -1.76146580
  C      5.99654147     -0.82684147     -2.87404618
  C      6.75615768      0.33485600     -2.87038463
  C      6.74904010      1.17287163     -1.76351304
  H      7.34212176      2.07991494     -1.77497490
  H      5.99777826     -1.47708302     -3.74106560
  H      7.35927470      0.59220851     -3.73339864
  H      4.61532765     -0.57082313      0.20553217
  H     10.09030208      4.48279245      0.79584025
  C      6.59642779      1.08038029      2.16968681
  C      6.51845956      1.66574020      3.43791104
  C      7.07673288      1.03823201      4.53926838
  C      7.70758917     -0.19134255      4.39327832
  C      7.77968768     -0.78666409      3.14135102
  C      7.22945485     -0.15686486      2.03447149
  H      8.14491908     -0.68278823      5.25436973
  H      8.27110823     -1.74547877      3.02258010
  H      7.29868635     -0.62731681      1.06047891
  H      4.63506645     -2.05710084     -1.75573276
  H      7.01680511      1.50661715      5.51485593
  H      6.01833298      2.62155783      3.55611584
  P      0.96140232     -3.93836360      1.16189016
  C      2.61212698     -4.67314508      0.95713260
  C      2.83733105     -6.04272879      1.13098492
  C      4.11196193     -6.56622496      0.98719478
  C      5.18083578     -5.73277904      0.68100687
  C      4.97234096     -4.36907212      0.52517018
  C      3.69599917     -3.84561331      0.66399888
  H      6.17659174     -6.14574584      0.57121453
  H      2.00973781     -6.69718855      1.38168195
  H      3.53356504     -2.77961262      0.54790174
  H      5.80299376     -3.71069746      0.29754474
  C     -0.13579486     -4.92125901      0.09908617
  C     -1.52093992     -4.79589337      0.25402378
  C     -2.38618782     -5.47058627     -0.59182606
  C     -1.88762633     -6.25327938     -1.62516046
  C     -0.51675145     -6.36067539     -1.80636799
  C      0.35243396     -5.70243866     -0.94967906
  H      1.42140662     -5.79730884     -1.09861033
  H     -2.56861694     -6.77132990     -2.29013162
  H     -0.11773570     -6.95956346     -2.61714507
  H     -1.92218137     -4.16695924      1.04234524
  H      4.27361452     -7.62980701      1.11825307
  C      0.56681060     -4.44433413      2.86919463
  C      1.19497593     -3.73547328      3.89679131
  C      0.98207130     -4.07411513      5.22251320
  C      0.13712760     -5.12945376      5.54037568
  C     -0.48478585     -5.84568040      4.52695189
  C     -0.27328036     -5.50920234      3.19752281
  H     -0.03461718     -5.39470334      6.57683204
  H     -1.13897417     -6.67486275      4.77033991
  H     -0.76099398     -6.08066913      2.41655274
  H     -3.45640308     -5.38241528     -0.44822995
  H      1.47450924     -3.51079555      6.00712005
  H      1.85700389     -2.91414243      3.64635759
  P     -0.06851495      0.20338935      3.78867923
  C      1.63704040     -0.27220263      4.23956492
  C      2.01192087     -0.50182427      5.56726504
  C      3.30487135     -0.89583320      5.87379050
  C      4.24276649     -1.07154215      4.86450211
  C      3.88532105     -0.84149811      3.54397917
  C      2.59405949     -0.44052445      3.23898156
  H      5.25188485     -1.38349578      5.10679411
  H      1.28860089     -0.37210101      6.36398346
  H      2.32282095     -0.25986048      2.20603511
  H      4.60947013     -0.97404224      2.74812854
  C     -1.09946633     -1.11253076      4.51615984
  C     -1.60415264     -2.09883655      3.66585218
  C     -2.40374408     -3.11976360      4.15533945
  C     -2.72095529     -3.16599898      5.50568991
  C     -2.22726105     -2.19142270      6.36231351
  C     -1.42104007     -1.17407627      5.87491050
  H     -1.04895657     -0.41712358      6.55544679
  H     -3.35077955     -3.95999560      5.88894116
  H     -2.47087846     -2.22231583      7.41784417
  H     -1.36261164     -2.06582130      2.60873596
  H      3.58092999     -1.06950576      6.90731361
  C     -0.40309238      1.63771742      4.85097843
  C      0.61567289      2.51455978      5.23025522
  C      0.32707227      3.63940667      5.98721981
  C     -0.98109579      3.91519661      6.35983478
  C     -2.00589058      3.06533639      5.96579328
  C     -1.72118519      1.93733236      5.21201742
  H     -1.20287728      4.79507011      6.95194399
  H     -3.03037335      3.27858296      6.24801322
  H     -2.52463071      1.27247391      4.91325626
  H     -2.77370940     -3.88326537      3.48082724
  H      1.12884464      4.30436543      6.28638608
  H      1.64030025      2.30917805      4.94060718
  P     -0.82643495      4.64529677      1.26700839
  C     -2.51226243      3.97784700      1.17350317
  C     -3.03038645      3.27145618      2.26209097
  C     -4.26368810      2.64669869      2.17546560
  C     -4.99254872      2.70270244      0.99347991
  C     -4.48005216      3.38714280     -0.10039321
  C     -3.24627519      4.01477416     -0.01379017
  H     -5.96028374      2.21946213      0.92863660
  H     -2.46391855      3.21858961      3.18508022
  H     -2.85443351      4.55246153     -0.86933111
  H     -5.04551682      3.43720059     -1.02388224
  C     -0.79871856      6.01792517      0.07240725
  C      0.32925985      6.18227043     -0.73242250
  C      0.43424354      7.26531933     -1.59095196
  C     -0.59303851      8.19585944     -1.66073359
  C     -1.72512497      8.03846198     -0.87139604
  C     -1.82714090      6.96237187     -0.00485798
  H     -2.70621575      6.85645720      0.62112423
  H     -0.51200901      9.04455348     -2.32958290
  H     -2.52910526      8.76331024     -0.92448135
  H      1.13258118      5.45517532     -0.67714867
  H     -4.65780942      2.11730343      3.03462612
  C     -0.76966858      5.55740795      2.84167153
  C      0.48987574      5.81324678      3.38952017
  C      0.61933520      6.58810346      4.53119388
  C     -0.51108221      7.10726627      5.14871091
  C     -1.76875297      6.84646035      4.62099636
  C     -1.90049036      6.08221165      3.47162954
  H     -0.41181930      7.71523455      6.04012211
  H     -2.65341345      7.24821725      5.10126533
  H     -2.88665520      5.89577526      3.06203702
  H      1.31976175      7.38252413     -2.20486673
  H      1.60363066      6.78861892      4.93822310
  H      1.37291250      5.40306841      2.91042799
  P     -5.15061341     -1.04830098      0.49692509
  C     -5.47225980     -2.84511050      0.52027042
  C     -5.22880345     -3.58965799      1.67723410
  C     -5.41967426     -4.96211946      1.68805616
  C     -5.85396159     -5.61556122      0.54176484
  C     -6.09341547     -4.88729279     -0.61631617
  C     -5.89820444     -3.51421382     -0.63060625
  H     -6.01106112     -6.68750278      0.55267198
  H     -4.90467210     -3.08926589      2.58265281
  H     -6.09708535     -2.95635914     -1.53860644
  H     -6.43806763     -5.38870545     -1.51328171
  C     -6.29538889     -0.40963127     -0.75764897
  C     -5.80490853      0.52511439     -1.67244611
  C     -6.62205651      1.05389107     -2.65847137
  C     -7.94775684      0.65172488     -2.74600843
  C     -8.44666373     -0.28601273     -1.85136232
  C     -7.62938072     -0.81837100     -0.86630503
  H     -8.02467826     -1.56404879     -0.18599060
  H     -8.59037953      1.06341476     -3.51526719
  H     -9.47877536     -0.60873068     -1.92315945
  H     -4.76665487      0.83384659     -1.60882459
  H     -5.23420567     -5.52256195      2.59716375
  C     -5.78404679     -0.51543849      2.12037815
  C     -4.88636122     -0.57663799      3.19156637
  C     -5.27593281     -0.20354956      4.46823674
  C     -6.56687330      0.25804154      4.69004560
  C     -7.45951587      0.34432573      3.63071622
  C     -7.07497286     -0.04134051      2.35465492
  H     -6.87352090      0.55649029      5.68554362
  H     -8.46484281      0.71334137      3.79728076
  H     -7.78428165      0.03409247      1.53903762
  H     -6.22140082      1.77690122     -3.35999154
  H     -4.56857588     -0.26929782      5.28759709
  H     -3.86886039     -0.91010520      3.01655306
  P      0.78323243     -2.53697229     -4.02562030
  C      1.71125206     -4.09735331     -3.87195332
  C      1.46396817     -5.20664254     -4.68611939
  C      2.19884748     -6.37090570     -4.52918260
  C      3.19828561     -6.44428025     -3.56701025
  C      3.45806729     -5.34775359     -2.75723620
  C      2.71506332     -4.18610261     -2.90671362
  H      3.77466730     -7.35440109     -3.45049384
  H      0.69469908     -5.15929109     -5.44798623
  H      2.91261691     -3.33419676     -2.26526608
  H      4.24006120     -5.39386918     -2.00790892
  C      0.99994694     -2.08023078     -5.77033116
  C     -0.01392946     -1.41907889     -6.46986445
  C      0.20368020     -0.96519751     -7.76155612
  C      1.43812076     -1.15162895     -8.36823946
  C      2.45691424     -1.79449715     -7.67746155
  C      2.24417167     -2.25008853     -6.38561121
  H      3.04449501     -2.75081153     -5.85165991
  H      1.60649390     -0.79590163     -9.37774969
  H      3.42292412     -1.94192408     -8.14619197
  H     -0.98168754     -1.27149060     -6.00434943
  H      1.99431291     -7.22390558     -5.16564423
  C     -0.96398504     -3.03234638     -3.88764833
  C     -1.64007550     -2.71637180     -2.70767995
  C     -2.97347843     -3.05004870     -2.53838012
  C     -3.65532645     -3.71520068     -3.54835595
  C     -2.99474560     -4.04168171     -4.72548151
  C     -1.66226384     -3.69995257     -4.89779197
  H     -4.69821138     -3.97916435     -3.41879103
  H     -3.52224642     -4.56065829     -5.51723829
  H     -1.16559391     -3.94660336     -5.82884172
  H     -0.59578067     -0.46173726     -8.29323880
  H     -3.47881677     -2.78907781     -1.61536540
  H     -1.11383116     -2.19909439     -1.91295527

