246
Energy =   -372.45365146 au
 Au      0.90579664     -0.01776273      2.12725163
 Au      2.17886177     -0.62146800     -2.45789130
 Au     -1.15232333      0.25868832      4.21406620
 Au     -0.39334277     -0.46113305     -3.07606213
 Au     -1.57662022      0.33988895      1.31933932
 Au      0.43496492      0.15194824     -0.66926432
 Au      0.30467114      2.39078509      0.97037626
 Au     -1.03903860     -2.01401168      3.04187553
  P     -3.78137392      0.20200884      0.44027079
  C     -4.08282163     -1.35427042     -0.45767032
  C     -5.36231542     -1.76385604     -0.84499055
  C     -5.53228157     -2.92465300     -1.58424633
  C     -4.43126452     -3.68546332     -1.95773883
  C     -3.15687146     -3.28759246     -1.57843076
  C     -2.98760597     -2.13206274     -0.83265567
  H     -4.56598217     -4.58727170     -2.54354342
  H     -6.22642845     -1.16956084     -0.57011906
  H     -1.99243337     -1.82460255     -0.53361433
  H     -2.29198814     -3.87602094     -1.86220183
  C     -4.17867803      1.42622607     -0.85311086
  C     -3.15066324      1.79878206     -1.72262559
  C     -3.37955444      2.69085584     -2.75677901
  C     -4.64386230      3.23800977     -2.92907993
  C     -5.67469055      2.87729035     -2.07146223
  C     -5.44933647      1.97220452     -1.04417477
  H     -6.26516176      1.69085599     -0.38856555
  H     -4.82600176      3.94213264     -3.73218401
  H     -6.66414890      3.29849908     -2.20586886
  H     -2.15790215      1.38373702     -1.58396676
  H     -6.52915531     -3.23395022     -1.87586981
  C     -5.09804024      0.31050723      1.67913100
  C     -5.64293608     -0.84182081      2.25242911
  C     -6.54585523     -0.74694921      3.29973798
  C     -6.90769943      0.49672189      3.79855484
  C     -6.35470901      1.64707117      3.25195884
  C     -5.44865573      1.55717228      2.20792980
  H     -7.61388957      0.56998663      4.61705944
  H     -6.62339347      2.62038443      3.64621296
  H     -5.00474986      2.45984778      1.80095898
  H     -2.56882788      2.96252013     -3.42350136
  H     -6.96530799     -1.64947626      3.72933135
  H     -5.35717063     -1.81823802      1.87671921
  P      3.04059092     -0.77373234      2.88042389
  C      4.28218249      0.55654264      2.89878235
  C      5.27644916      0.66132783      3.87379048
  C      6.18152976      1.71153256      3.84168566
  C      6.10759115      2.67042627      2.84077481
  C      5.12152270      2.57814499      1.86556966
  C      4.21469719      1.52901069      1.89749361
  H      6.81346434      3.49228534      2.82131959
  H      5.33836387     -0.08016092      4.66205499
  H      3.44094393      1.46337066      1.13930909
  H      5.05105286      3.32760505      1.08525089
  C      3.81368798     -2.09585732      1.89701972
  C      3.03972000     -3.22047951      1.59582341
  C      3.57458636     -4.27481707      0.87475167
  C      4.88754428     -4.21127960      0.42395814
  C      5.65615550     -3.08715263      0.69232631
  C      5.12615238     -2.03647898      1.42593688
  H      5.73890708     -1.16778510      1.63725240
  H      5.31162177     -5.03936938     -0.13170437
  H      6.67763620     -3.02884089      0.33395477
  H      2.01097738     -3.26719868      1.93854905
  H      6.94769066      1.78250859      4.60488483
  C      3.03235871     -1.43371092      4.57619876
  C      2.33673946     -0.70923282      5.54940869
  C      2.24317395     -1.17707004      6.84891095
  C      2.83478003     -2.38513713      7.19552693
  C      3.52384821     -3.11574825      6.23798166
  C      3.62377293     -2.64635348      4.93611774
  H      2.75662054     -2.75624269      8.21053672
  H      3.99094916     -4.05688805      6.50426482
  H      4.16480954     -3.22618528      4.19755554
  H      2.96785997     -5.14797694      0.66372987
  H      1.70342059     -0.60024435      7.59134605
  H      1.86355805      0.22964310      5.28045955
  P      4.29023000     -1.13128573     -3.36320824
  C      4.59732565     -0.14405178     -4.85607480
  C      5.76043080      0.59697700     -5.06884320
  C      5.90353367      1.36086107     -6.21792096
  C      4.89266755      1.39234511     -7.16776017
  C      3.72893138      0.66153473     -6.96382406
  C      3.57707742     -0.09308721     -5.81234054
  H      5.00853149      1.98720308     -8.06601453
  H      6.55726805      0.57545351     -4.33448521
  H      2.66138062     -0.65250242     -5.64812763
  H      2.93589465      0.67996008     -7.70244450
  C      4.51313215     -2.85696995     -3.89078302
  C      4.25949737     -3.85267914     -2.94251651
  C      4.41470500     -5.19054624     -3.26640030
  C      4.80582855     -5.55329916     -4.54924930
  C      5.04356301     -4.57317373     -5.50212189
  C      4.90157181     -3.23187098     -5.17756269
  H      5.09695646     -2.47384738     -5.92711380
  H      4.92440241     -6.59977501     -4.80421483
  H      5.34757570     -4.85206193     -6.50431537
  H      3.94727828     -3.56970519     -1.94230793
  H      6.81143825      1.93228790     -6.37159900
  C      5.72432897     -0.82486941     -2.28790758
  C      5.62672105      0.16240546     -1.30487776
  C      6.70133172      0.43726070     -0.47354887
  C      7.88208249     -0.28207845     -0.60091861
  C      7.98587127     -1.27490975     -1.56619848
  C      6.91706639     -1.54349833     -2.40753384
  H      8.71940427     -0.06986579      0.05337264
  H      8.90504295     -1.83976449     -1.66871889
  H      7.00674108     -2.31753476     -3.16106721
  H      4.23325788     -5.95200146     -2.51627781
  H      6.61626542      1.21386374      0.27767734
  H      4.69955975      0.71540495     -1.19190167
  P     -1.24173684      2.44813456      5.18758723
  C     -0.98622171      2.47606912      6.98739639
  C     -0.95911668      3.65868505      7.73331726
  C     -0.73039625      3.61917831      9.09906355
  C     -0.52232290      2.40395776      9.73907148
  C     -0.54673636      1.22398734      9.00904458
  C     -0.77683171      1.26084247      7.64259720
  H     -0.34148112      2.37774529     10.80718014
  H     -1.11682989      4.61237576      7.24229081
  H     -0.79873807      0.33856496      7.07128747
  H     -0.38743390      0.27272715      9.50354663
  C     -2.77574234      3.38677879      4.90686668
  C     -2.99389399      3.95985834      3.64931834
  C     -4.16258418      4.65422739      3.38361529
  C     -5.14347049      4.76633662      4.36171468
  C     -4.95087529      4.17390811      5.60236477
  C     -3.77710417      3.48654199      5.87419180
  H     -3.63218340      3.03472811      6.84890523
  H     -6.05353831      5.31764761      4.15662074
  H     -5.71557826      4.25324008      6.36625700
  H     -2.23226282      3.87228491      2.88034776
  H     -0.71285238      4.54207439      9.66707617
  C      0.03200098      3.60983996      4.57936528
  C      1.23377184      3.09346675      4.09087124
  C      2.24609143      3.93470242      3.65366603
  C      2.07577505      5.31054360      3.70592232
  C      0.88568915      5.83798153      4.18762220
  C     -0.12969870      4.99724465      4.61688136
  H      2.86807150      5.96974391      3.37109445
  H      0.74619063      6.91193491      4.23157555
  H     -1.05565136      5.42598188      4.98182482
  H     -4.30547759      5.11651650      2.41343132
  H      3.17134615      3.51403592      3.27912895
  H      1.38476141      2.01983020      4.07141287
  P      0.44075501      4.46851537     -0.20579921
  C      1.50516897      5.88658079      0.21259157
  C      2.84688093      5.94568590     -0.17071825
  C      3.64800592      7.00136607      0.23615458
  C      3.12491284      8.01021395      1.03330650
  C      1.79439265      7.95736307      1.42741410
  C      0.99188562      6.89961389      1.02988788
  H      3.75207737      8.83638890      1.34634668
  H      3.26784551      5.17087459     -0.80110904
  H     -0.04328432      6.86092293      1.35097222
  H      1.37861002      8.74184753      2.04900935
  C     -1.18258739      5.21760305     -0.52569450
  C     -2.32616986      4.54951497     -0.08512530
  C     -3.58707478      5.08217664     -0.30371573
  C     -3.72245715      6.29355335     -0.96731240
  C     -2.59302510      6.96912411     -1.41086200
  C     -1.33136898      6.43909835     -1.19218315
  H     -0.45412890      6.97726176     -1.53298325
  H     -4.70753097      6.71188543     -1.13729216
  H     -2.69494967      7.91581407     -1.92844254
  H     -2.22264783      3.60052318      0.43046892
  H      4.68564417      7.03644433     -0.07515888
  C      1.03161042      3.90613467     -1.83747091
  C      2.18737696      3.11821315     -1.87143129
  C      2.67073424      2.61835180     -3.07077029
  C      1.98829371      2.86925288     -4.25443352
  C      0.82843791      3.63093884     -4.22999933
  C      0.35467493      4.14899934     -3.03282444
  H      2.36141440      2.46963443     -5.19046133
  H      0.29073453      3.83255542     -5.14937341
  H     -0.55051096      4.74525771     -3.03186323
  H     -4.46560213      4.54634164      0.03743317
  H      3.58529372      2.03683908     -3.08312851
  H      2.70796740      2.88853176     -0.94794840
  P     -1.82213363     -0.91047961     -4.90038660
  C     -3.45619110     -0.11362852     -4.99559073
  C     -3.75511584      0.90882528     -5.89716065
  C     -5.01014784      1.49992797     -5.89473076
  C     -5.97848193      1.08501115     -4.99121037
  C     -5.68553241      0.07958232     -4.07856264
  C     -4.43278749     -0.50964995     -4.07624942
  H     -6.95917887      1.54584641     -4.99511616
  H     -3.00935221      1.23827801     -6.61137465
  H     -4.20620492     -1.29448508     -3.36423898
  H     -6.43334826     -0.24485161     -3.36368449
  C     -2.19441747     -2.68527941     -5.00528847
  C     -1.28820498     -3.57563830     -4.42386652
  C     -1.52723337     -4.94044482     -4.43379375
  C     -2.68147984     -5.43647308     -5.02548744
  C     -3.58720971     -4.56292674     -5.61248019
  C     -3.34824085     -3.19696941     -5.60491933
  H     -4.06502572     -2.52356464     -6.06039360
  H     -2.87480322     -6.50272251     -5.02871666
  H     -4.48703247     -4.94696863     -6.07873520
  H     -0.39055765     -3.18753479     -3.95425097
  H     -5.23271598      2.28638203     -6.60652049
  C     -1.02755071     -0.47976520     -6.47619066
  C     -0.35358881      0.74360368     -6.53922025
  C      0.25562818      1.15357833     -7.71425696
  C      0.21981589      0.33369789     -8.83536761
  C     -0.42833218     -0.89243916     -8.77600118
  C     -1.05373837     -1.29783829     -7.60641172
  H      0.69821879      0.65124323     -9.75432160
  H     -0.45312132     -1.53588775     -9.64777062
  H     -1.56501892     -2.25310029     -7.57137947
  H     -0.81498965     -5.61543057     -3.97256298
  H      0.75614903      2.11426444     -7.75538982
  H     -0.31309059      1.37479501     -5.65706712
  P     -1.07852767     -4.21195440      2.08165064
  C     -2.78582237     -4.74436679      1.73947289
  C     -3.15869126     -5.60419744      0.70484864
  C     -4.49126649     -5.93952211      0.51501559
  C     -5.46987123     -5.42281498      1.35207446
  C     -5.11210097     -4.56503746      2.38416129
  C     -3.78235387     -4.22482878      2.57136949
  H     -6.50988901     -5.68656107      1.20055190
  H     -2.40739553     -6.01153741      0.03807770
  H     -3.50551831     -3.54850831      3.37344452
  H     -5.87071602     -4.16341569      3.04609102
  C     -0.47006659     -5.42626369      3.29246038
  C      0.60745647     -5.04332467      4.09631525
  C      1.13272024     -5.91503192      5.03571375
  C      0.58201531     -7.18022778      5.19172305
  C     -0.49646770     -7.56676770      4.40784309
  C     -1.02235043     -6.69759312      3.46364299
  H     -1.87252226     -7.00371925      2.86449184
  H      0.98876501     -7.86171227      5.92951628
  H     -0.93400872     -8.55039660      4.53319876
  H      1.03178029     -4.05018012      3.98505173
  H     -4.76473073     -6.60863452     -0.29278286
  C     -0.16559988     -4.66439966      0.56164180
  C      0.24661311     -3.65494957     -0.30885315
  C      0.90604750     -3.96290697     -1.48797095
  C      1.16399247     -5.28512287     -1.81961300
  C      0.78139286     -6.29815510     -0.95028554
  C      0.12774761     -5.99123376      0.23350276
  H      1.67465520     -5.52301379     -2.74527954
  H      0.99426325     -7.33237173     -1.19430304
  H     -0.15035676     -6.78919607      0.91249684
  H      1.96882700     -5.60266240      5.65133494
  H      1.22699610     -3.16524799     -2.14867154
  H      0.05866395     -2.61718861     -0.05389200
