#B3LYP/6-31+G(d) OPT FREQ

246, Energy =   -372.43857550 au

0 1
 Au      1.22212518     -0.61627992      2.77387484
 Au     -1.97749672     -1.30146717     -0.91919298
 Au      2.09917950      1.06129454      0.91680653
 Au      1.11857286      3.09768599     -0.87133253
 Au     -1.45693127      3.48930608     -0.82726889
 Au      0.21137861     -0.80162750     -2.47269727
 Au     -0.56693296      1.01138596     -0.37669255
 Au      0.63155031     -1.36731776      0.17069928
  P     -3.91037917     -2.49735698     -1.67626713
  C     -5.47215752     -2.50180166     -0.74207857
  C     -6.70665493     -2.16810082     -1.30307650
  C     -7.84731776     -2.13185730     -0.51397677
  C     -7.77264896     -2.42629912      0.84051917
  C     -6.55072124     -2.76372084      1.40789931
  C     -5.40950613     -2.79640514      0.62382809
  H     -8.66581832     -2.39473605      1.45313975
  H     -6.78058793     -1.94278786     -2.36059193
  H     -4.45662292     -3.06187306      1.06807076
  H     -6.48441017     -2.99930318      2.46390377
  C     -3.50479473     -4.25375044     -1.93127300
  C     -2.33576595     -4.53503052     -2.64542520
  C     -1.92979637     -5.84192138     -2.85465670
  C     -2.68269696     -6.89124800     -2.34157668
  C     -3.84320115     -6.62470825     -1.62881666
  C     -4.25549509     -5.31536920     -1.42394058
  H     -5.16449272     -5.11877333     -0.86741887
  H     -2.36555621     -7.91502875     -2.50101758
  H     -4.43518238     -7.44037029     -1.23021545
  H     -1.74680889     -3.71411882     -3.04211473
  H     -8.80001006     -1.87631865     -0.96314086
  C     -4.36788453     -1.95458931     -3.35133993
  C     -4.03532715     -0.66149521     -3.75924119
  C     -4.40209963     -0.19941298     -5.01363886
  C     -5.08938862     -1.03180785     -5.88595841
  C     -5.40708585     -2.32759139     -5.50022469
  C     -5.05364281     -2.78694110     -4.24115538
  H     -5.37235926     -0.67257948     -6.86832461
  H     -5.93691254     -2.98275407     -6.18174764
  H     -5.30642208     -3.79890789     -3.94540425
  H     -1.02515829     -6.04254034     -3.41741177
  H     -4.15062972      0.81173818     -5.31267605
  H     -3.48031798     -0.01720418     -3.08548942
  P     -3.55843113      4.62630960     -0.85864064
  C     -4.92441595      3.43725303     -0.66155957
  C     -6.03488713      3.65239959      0.15637064
  C     -7.00872058      2.67384310      0.29148174
  C     -6.89011213      1.47036432     -0.38944188
  C     -5.79064631      1.24646879     -1.20804857
  C     -4.81215173      2.21852295     -1.33706146
  H     -7.64891766      0.70378368     -0.28103755
  H     -6.13811244      4.58792752      0.69387961
  H     -3.94375429      2.03379701     -1.96153780
  H     -5.69276986      0.30876769     -1.74305514
  C     -3.99402099      5.55745645     -2.36047634
  C     -3.30248553      6.74634292     -2.61913707
  C     -3.53696389      7.45722712     -3.78505153
  C     -4.45415866      6.98551293     -4.71555405
  C     -5.13628637      5.80147716     -4.47422346
  C     -4.90708559      5.08758474     -3.30675445
  H     -5.45005788      4.16684165     -3.12571163
  H     -4.63661946      7.54143416     -5.62755693
  H     -5.85389141      5.42974524     -5.19656528
  H     -2.58627693      7.11828763     -1.89386934
  H     -7.86361462      2.85316069      0.93306701
  C     -3.78446337      5.83080706      0.48090674
  C     -2.93042138      5.75896883      1.58382103
  C     -3.06962496      6.63971673      2.64456575
  C     -4.06140047      7.61063931      2.61288632
  C     -4.90832576      7.70086109      1.51604611
  C     -4.77353351      6.81910398      0.45513138
  H     -4.16992919      8.30198915      3.44026213
  H     -5.67769275      8.46355593      1.48534680
  H     -5.43143337      6.90162730     -0.40264933
  H     -3.00185799      8.38179995     -3.96810125
  H     -2.39969011      6.57128629      3.49407878
  H     -2.14634378      5.00858800      1.60095003
  P      1.99558744     -3.42933347      0.08154933
  C      1.13829982     -4.90776103      0.72031903
  C      0.54154428     -5.86634037     -0.09938865
  C     -0.13287598     -6.94441018      0.45577216
  C     -0.22072162     -7.08240302      1.83395670
  C      0.35862874     -6.12810497      2.66042138
  C      1.02189375     -5.04491101      2.10903720
  H     -0.74264833     -7.92899845      2.26381358
  H      0.61011700     -5.78054040     -1.17760593
  H      1.46367077     -4.29717830      2.75979402
  H      0.28796984     -6.22381339      3.73779501
  C      3.56588488     -3.50035903      1.01296939
  C      4.22285271     -2.31719055      1.35269920
  C      5.40897327     -2.34296141      2.07039263
  C      5.95486106     -3.55517762      2.46687679
  C      5.31520984     -4.74107524      2.13128626
  C      4.13343030     -4.71720773      1.40789075
  H      3.64404473     -5.64980845      1.15199180
  H      6.87663386     -3.57608383      3.03602808
  H      5.73896775     -5.69171918      2.43330133
  H      3.80060866     -1.36681416      1.04801425
  H     -0.58786810     -7.68190300     -0.19561168
  C      2.47082966     -3.87977992     -1.62269986
  C      1.48362133     -3.85773010     -2.61282992
  C      1.79558002     -4.12201419     -3.93667049
  C      3.10752734     -4.40432586     -4.29646589
  C      4.09727189     -4.42793243     -3.32424515
  C      3.78417656     -4.16966122     -1.99691206
  H      3.35593012     -4.60343310     -5.33212219
  H      5.12270577     -4.64733182     -3.59813761
  H      4.56813271     -4.19483462     -1.24902028
  H      5.90656454     -1.41369644      2.32247923
  H      1.01427345     -4.10317527     -4.68792347
  H      0.45917310     -3.63134879     -2.33948618
  P      0.55285251      0.14411932     -4.61611891
  C     -0.56404920     -0.54561737     -5.87382376
  C     -0.85893129      0.11760376     -7.06826825
  C     -1.71399902     -0.45892167     -7.99384220
  C     -2.28231131     -1.70147769     -7.74378121
  C     -1.99638004     -2.36847400     -6.56053900
  C     -1.14419534     -1.79233442     -5.63223950
  H     -2.95030539     -2.14845366     -8.47054792
  H     -0.42131620      1.08873869     -7.27005840
  H     -0.92697056     -2.30900406     -4.70307344
  H     -2.44212186     -3.33527098     -6.35636722
  C      2.20110759      0.16993496     -5.38204149
  C      3.14067532     -0.76652396     -4.94622651
  C      4.41667617     -0.79168883     -5.48618228
  C      4.76766488      0.11686336     -6.47515228
  C      3.83680709      1.04435269     -6.92580868
  C      2.56105968      1.07482605     -6.38472678
  H      1.84277288      1.80381592     -6.74218772
  H      5.76488085      0.10049009     -6.89871624
  H      4.10426663      1.74705581     -7.70641134
  H      2.86256719     -1.48127707     -4.17918118
  H     -1.93762317      0.06451905     -8.91608549
  C      0.06068393      1.88675292     -4.47995097
  C     -1.29894554      2.20959562     -4.45891055
  C     -1.71608288      3.50817979     -4.21568836
  C     -0.78049922      4.50810418     -3.97824446
  C      0.57353882      4.19717538     -3.98070043
  C      0.99161639      2.89512695     -4.21886532
  H     -1.10759708      5.52499504     -3.79608755
  H      1.31072891      4.97132780     -3.80172994
  H      2.05086254      2.66477858     -4.21389598
  H      5.13608907     -1.52175113     -5.13329183
  H     -2.77432884      3.74249676     -4.21746059
  H     -2.03378267      1.43442512     -4.64228475
  P     -0.87449419     -1.57641105      3.65456075
  C     -0.99852117     -1.62302424      5.47256048
  C     -1.90759501     -0.86470950      6.21234365
  C     -1.95917035     -0.98691877      7.59302655
  C     -1.11094457     -1.86667660      8.25119884
  C     -0.19542967     -2.61863217      7.52562831
  C     -0.13604573     -2.49382348      6.14704837
  H     -1.16063176     -1.96490241      9.32914246
  H     -2.58061634     -0.18084031      5.70839895
  H      0.58130576     -3.08110914      5.58271860
  H      0.47292678     -3.30375179      8.03413840
  C     -1.83297643     -3.05737181      3.16244488
  C     -1.69935903     -3.55165428      1.86502864
  C     -2.41997416     -4.65634331      1.44227499
  C     -3.28324687     -5.29771880      2.32065637
  C     -3.42036702     -4.82292551      3.61776024
  C     -2.70266854     -3.71341317      4.03776472
  H     -2.82258886     -3.35345769      5.05273022
  H     -3.84203034     -6.16683645      1.99409301
  H     -4.09119088     -5.31892827      4.30952700
  H     -1.01287973     -3.06831690      1.17900751
  H     -2.67057610     -0.39421696      8.15633743
  C     -1.96396057     -0.20770132      3.15175588
  C     -1.58683364      1.08813937      3.51778924
  C     -2.29037580      2.18830237      3.05651497
  C     -3.37562897      2.01319335      2.20779421
  C     -3.75539196      0.73285619      1.82893559
  C     -3.05548061     -0.36895768      2.29804146
  H     -3.92588709      2.87359515      1.84567138
  H     -4.60112709      0.58688674      1.16661055
  H     -3.36571074     -1.36281898      1.99979931
  H     -2.29381095     -5.02565538      0.43202101
  H     -1.98787094      3.18526873      3.35579813
  H     -0.73360513      1.22931986      4.17190044
  P      2.60740929      0.09573176      4.73602509
  C      3.44979576     -1.33750561      5.47951209
  C      4.31884001     -1.22867261      6.56921445
  C      4.95291262     -2.35334438      7.07277615
  C      4.73794664     -3.59745938      6.49341722
  C      3.88745628     -3.71565714      5.40301076
  C      3.25017742     -2.59194966      4.90090681
  H      5.23831142     -4.47354674      6.88886608
  H      4.50343299     -0.25886571      7.01786733
  H      2.59432751     -2.68048858      4.04057846
  H      3.72326099     -4.68133142      4.93832385
  C      1.67532172      0.88926162      6.08282586
  C      1.06021080      2.11423714      5.79325477
  C      0.26657087      2.74589805      6.73642212
  C      0.07096485      2.16288023      7.98224995
  C      0.67266208      0.94832057      8.27752958
  C      1.46379870      0.30971865      7.33347053
  H      1.91787994     -0.64501115      7.57247781
  H     -0.54982056      2.65591802      8.72093802
  H      0.52347148      0.48967185      9.24817532
  H      1.22170167      2.57730067      4.82461797
  H      5.62230181     -2.25795242      7.91980337
  C      4.00530385      1.25190226      4.48747539
  C      4.74544267      1.15522512      3.30701472
  C      5.84553505      1.96798656      3.08867571
  C      6.21877014      2.90267295      4.04488461
  C      5.48299676      3.02012362      5.21589135
  C      4.38705200      2.19987950      5.43969676
  H      7.07734447      3.54136070      3.87421990
  H      5.76541485      3.75176812      5.96398677
  H      3.82442398      2.30097892      6.36037767
  H     -0.20013184      3.69515872      6.49935524
  H      6.41143558      1.87239503      2.16920194
  H      4.45513820      0.43415312      2.55131974
  P      3.47337769      3.33227961     -1.13061751
  C      4.02719386      4.08039351     -2.69325738
  C      3.80617357      5.44674377     -2.89817994
  C      4.13109401      6.03703608     -4.10926455
  C      4.66385847      5.27022187     -5.13769827
  C      4.87299750      3.91148555     -4.94903315
  C      4.55411676      3.31632098     -3.73747521
  H      4.91482743      5.73207019     -6.08519709
  H      3.38688129      6.04799957     -2.09851870
  H      4.72630218      2.25463417     -3.60072172
  H      5.28652244      3.30686838     -5.74820765
  C      4.35019014      1.73274401     -1.10887400
  C      3.69816924      0.61022826     -1.62933512
  C      4.31961109     -0.62849193     -1.63677076
  C      5.60201650     -0.76644932     -1.12374118
  C      6.26038234      0.34104824     -0.60685865
  C      5.64160710      1.58212365     -0.60159121
  H      6.16685622      2.44155864     -0.20128641
  H      6.08467690     -1.73670393     -1.12480230
  H      7.26238580      0.23923061     -0.20663144
  H      2.70301638      0.71611841     -2.04685236
  H      3.96529293      7.09853353     -4.25144664
  C      4.27927301      4.29782846      0.17765391
  C      3.68349725      4.31877068      1.44102054
  C      4.25757870      5.02724719      2.48332040
  C      5.43628513      5.73148751      2.27535678
  C      6.03705300      5.72140623      1.02375867
  C      5.46514101      5.01159760     -0.02081845
  H      5.88396931      6.29122681      3.08805392
  H      6.95635093      6.27088429      0.85799865
  H      5.93628557      5.01621295     -0.99704622
  H      3.79911058     -1.48941460     -2.03910956
  H      3.78416059      5.03113380      3.45842676
  H      2.75926904      3.77394448      1.60391851

