246
Energy =   -372.45415078 au
 Au      0.61508456      0.21787547     -0.56210327
 Au      1.64787318     -1.70971789      0.85079210
 Au     -2.10512043      0.36303036     -0.73347391
 Au      3.21534946      0.03569343     -0.48508693
 Au     -2.55646925     -1.01587156      1.68828270
 Au     -0.69646695      2.66101059     -0.07003881
 Au     -0.61442544      1.73892701     -2.58869297
 Au     -1.15942711     -2.25548608     -0.07892388
  P      5.58208051      0.20461851     -0.46759095
  C      6.33332910      1.84239387     -0.70182918
  C      7.02921253      2.51387385      0.30493592
  C      7.48507824      3.80802118      0.09708154
  C      7.24693909      4.44812377     -1.11117197
  C      6.55629523      3.78807841     -2.12036590
  C      6.09929551      2.49628681     -1.91665691
  H      7.60057714      5.46017987     -1.26878099
  H      7.22110749      2.02024400      1.25078718
  H      5.55944448      1.98271249     -2.70623678
  H      6.37126264      4.28177969     -3.06749466
  C      6.43327734     -0.88091742     -1.65057883
  C      5.86386564     -2.13635866     -1.88341722
  C      6.44445621     -3.02204475     -2.77590717
  C      7.60085239     -2.66070514     -3.45637871
  C      8.17270132     -1.41530750     -3.23589092
  C      7.59583446     -0.52869294     -2.33818300
  H      8.04892988      0.44204439     -2.17363586
  H      8.05382449     -3.34974238     -4.15934554
  H      9.07468891     -1.13079984     -3.76511867
  H      4.95440037     -2.41147648     -1.35887084
  H      8.03138364      4.31655485      0.88306573
  C      6.17581516     -0.38933812      1.14653122
  C      5.31210620     -0.30242306      2.24169453
  C      5.68285931     -0.80185104      3.47983313
  C      6.92594497     -1.39846936      3.64108219
  C      7.79626776     -1.48616068      2.56248724
  C      7.42628249     -0.98763837      1.32259532
  H      7.21520108     -1.79775467      4.60604066
  H      8.76804010     -1.94992137      2.68588473
  H      8.10872907     -1.06782947      0.48397389
  H      5.99164092     -3.99231046     -2.94561071
  H      4.99632082     -0.73268267      4.31623614
  H      4.33709413      0.15639678      2.11532191
  P     -0.56510469     -3.68095510     -1.91857612
  C     -1.98929232     -4.73299204     -2.32992511
  C     -2.21363033     -5.23752798     -3.61416380
  C     -3.33065425     -6.01570250     -3.87432503
  C     -4.23602594     -6.30193929     -2.86082934
  C     -4.02377330     -5.80499458     -1.58197495
  C     -2.91041946     -5.02216488     -1.32082789
  H     -5.10800827     -6.91082758     -3.06850053
  H     -1.51289840     -5.01418953     -4.41090924
  H     -2.74681873     -4.62919946     -0.32305816
  H     -4.72549087     -6.02715298     -0.78590487
  C      0.86098182     -4.81227105     -1.85859014
  C      2.11174169     -4.28232226     -1.52610791
  C      3.21030532     -5.10916033     -1.36189855
  C      3.07768083     -6.48227683     -1.52568230
  C      1.84259274     -7.02017220     -1.85929708
  C      0.74009604     -6.19370401     -2.02055689
  H     -0.22151815     -6.62597180     -2.27142694
  H      3.93591318     -7.12975948     -1.39044447
  H      1.73319516     -8.09055034     -1.98921458
  H      2.22045478     -3.21007799     -1.39295420
  H     -3.49533856     -6.40085833     -4.87389320
  C     -0.33943350     -2.71344556     -3.44643898
  C     -1.27953390     -1.71147177     -3.70854996
  C     -1.17740822     -0.92203863     -4.84200887
  C     -0.12840713     -1.11941063     -5.73249336
  C      0.81176177     -2.10790909     -5.48148257
  C      0.70992165     -2.90067317     -4.34599502
  H     -0.04624988     -0.50325895     -6.62021043
  H      1.63189309     -2.26528588     -6.17232374
  H      1.44928864     -3.67161874     -4.16217677
  H      4.17086675     -4.68458258     -1.09390277
  H     -1.92478966     -0.16196050     -5.03832464
  H     -2.10565731     -1.55970219     -3.02123131
  P     -4.44535608      0.72813292     -1.33133331
  C     -5.01239507      2.35638058     -0.75070934
  C     -6.05190485      3.06048012     -1.36660982
  C     -6.38764509      4.33449665     -0.93517451
  C     -5.68399045      4.93049643      0.10305742
  C     -4.65097551      4.24093068      0.72269826
  C     -4.32628310      2.96064944      0.30475391
  H     -5.93780819      5.93290125      0.42741728
  H     -6.58829289      2.61288573     -2.19559772
  H     -3.52636717      2.42041862      0.80057671
  H     -4.09518220      4.70017013      1.53236319
  C     -5.75192811     -0.46853171     -0.91813982
  C     -5.45078945     -1.82528297     -1.08148982
  C     -6.39055620     -2.79637205     -0.77725768
  C     -7.63320657     -2.42782806     -0.27781521
  C     -7.93119955     -1.08608102     -0.08530427
  C     -6.99971668     -0.10945350     -0.40632206
  H     -7.24622648      0.93639701     -0.26360083
  H     -8.36559484     -3.18746579     -0.03154789
  H     -8.89679461     -0.79558055      0.31206505
  H     -4.47104526     -2.11804605     -1.44685794
  H     -7.19559562      4.86957440     -1.42037618
  C     -4.50781697      0.90082371     -3.14368277
  C     -3.90863984      2.03055693     -3.71331066
  C     -3.79038753      2.15135220     -5.08788826
  C     -4.25603564      1.13788271     -5.91753421
  C     -4.84826615      0.01169419     -5.36322876
  C     -4.97220799     -0.10930772     -3.98618624
  H     -4.15943144      1.22912921     -6.99294084
  H     -5.21628741     -0.78018464     -6.00524468
  H     -5.43746929     -0.99428076     -3.56713217
  H     -6.14897770     -3.84308767     -0.92381560
  H     -3.33435928      3.03841683     -5.51260900
  H     -3.54522453      2.82631432     -3.07137259
  P      0.96785499      2.58138429     -4.18548692
  C      1.66839902      3.97328765     -3.24620762
  C      2.75375983      3.79391827     -2.38578318
  C      3.18561084      4.82715912     -1.56971765
  C      2.52428617      6.04721842     -1.57818026
  C      1.43051417      6.23204305     -2.41414053
  C      1.00367159      5.20364438     -3.23961807
  H      2.85888083      6.85050783     -0.93215476
  H      3.26796733      2.83952651     -2.35549336
  H      0.14674777      5.35342896     -3.88744239
  H      0.90881628      7.18209339     -2.42540630
  C      0.64377621      3.24837474     -5.84781450
  C     -0.38926264      2.67180960     -6.59205314
  C     -0.67098499      3.12022623     -7.87264209
  C      0.07267240      4.15500673     -8.42385201
  C      1.09467482      4.74146458     -7.68938165
  C      1.38127877      4.29481203     -6.40870529
  H      2.17503713      4.76560847     -5.83984533
  H     -0.14736688      4.50798662     -9.42442801
  H      1.67271840      5.55348936     -8.11499777
  H     -0.97691923      1.86935338     -6.15839888
  H      4.04128514      4.67474959     -0.92186726
  C      2.40347251      1.47184064     -4.38096455
  C      2.35434309      0.19711096     -3.81611612
  C      3.43823915     -0.66383481     -3.90488440
  C      4.58702628     -0.26311384     -4.57222160
  C      4.64780514      1.00173283     -5.14329856
  C      3.56583566      1.86391673     -5.05036268
  H      5.43228087     -0.93643543     -4.65191926
  H      5.54193956      1.31695731     -5.66837440
  H      3.62443119      2.84842340     -5.50027632
  H     -1.47419031      2.66321499     -8.43910464
  H      3.37726374     -1.65150789     -3.46223719
  H      1.45156440     -0.12862599     -3.31354857
  P      1.85678386     -3.49347808      2.35929743
  C      0.56750572     -4.75436012      2.15601693
  C      0.78426042     -5.93847463      1.44993815
  C     -0.27086650     -6.79714448      1.17788978
  C     -1.55671402     -6.48146107      1.59346954
  C     -1.78680998     -5.30137891      2.29052614
  C     -0.73411844     -4.44388525      2.56551376
  H     -2.37911032     -7.15239996      1.37506373
  H      1.78224076     -6.18970474      1.10879446
  H     -0.91705635     -3.52529039      3.11281423
  H     -2.78783196     -5.04779385      2.62090066
  C      1.69723078     -2.94107966      4.08468024
  C      1.90238297     -1.58813112      4.36354563
  C      1.83414443     -1.11524522      5.66456527
  C      1.55560040     -1.99033112      6.70561417
  C      1.34099620     -3.33709205      6.43943850
  C      1.41032636     -3.81204849      5.13864593
  H      1.23849152     -4.86380597      4.93981791
  H      1.50355981     -1.62356100      7.72399577
  H      1.12546581     -4.02293870      7.25046667
  H      2.11517152     -0.90300255      3.54945712
  H     -0.08617212     -7.71488270      0.63159161
  C      3.45178455     -4.36185335      2.31009811
  C      4.49191873     -3.77462609      1.58652341
  C      5.74198697     -4.37021349      1.53013999
  C      5.96809260     -5.56566441      2.19825371
  C      4.94252522     -6.15809094      2.92385477
  C      3.69254355     -5.56209975      2.98448294
  H      6.94371861     -6.03528807      2.15555996
  H      5.11777772     -7.08999505      3.44867480
  H      2.90065966     -6.02965400      3.55860987
  H      1.99849645     -0.06255037      5.86456572
  H      6.53820805     -3.89726995      0.96621740
  H      4.31592657     -2.83842704      1.06728693
  P     -0.15673155      4.02683389      1.77189011
  C     -1.05902825      5.58897004      1.92164539
  C     -2.04282976      5.80822353      2.88835313
  C     -2.78374342      6.98125242      2.88037837
  C     -2.56051302      7.94253168      1.90457110
  C     -1.59897781      7.72525791      0.92580807
  C     -0.86053726      6.55356174      0.92647828
  H     -3.13975834      8.85822504      1.90206335
  H     -2.22749420      5.06198315      3.65254121
  H     -0.12437732      6.37742062      0.14818757
  H     -1.42797398      8.46861305      0.15582795
  C      1.61742299      4.43516674      1.80363509
  C      2.50383139      3.37691979      1.58109254
  C      3.87200239      3.58383336      1.60715934
  C      4.37673388      4.85682847      1.84345895
  C      3.50561285      5.91481091      2.06195299
  C      2.13328613      5.70767841      2.04816248
  H      1.46352603      6.54008267      2.22992891
  H      5.44803408      5.02042938      1.85535427
  H      3.89444926      6.90888213      2.24949169
  H      2.11318253      2.38261450      1.38798274
  H     -3.53922523      7.14213984      3.64074180
  C     -0.32997091      3.13729647      3.34929744
  C     -0.59797566      1.76862244      3.32342823
  C     -0.65634346      1.03492214      4.49721335
  C     -0.46769099      1.66463577      5.71951707
  C     -0.19566653      3.02627264      5.75904491
  C     -0.11293640      3.75693421      4.58409449
  H     -0.52878650      1.09333442      6.63865209
  H     -0.03711392      3.52048141      6.71042842
  H      0.12719152      4.81357270      4.62272682
  H      4.54632814      2.75196714      1.43718862
  H     -0.84663654     -0.03101382      4.45510224
  H     -0.75693226      1.27194601      2.37266225
  P     -4.15062085     -0.53085176      3.40347504
  C     -5.50985072     -1.73846239      3.32031908
  C     -6.65545471     -1.63492525      4.11591249
  C     -7.63894848     -2.60887566      4.05860870
  C     -7.48817346     -3.70726411      3.22155786
  C     -6.35027706     -3.82637385      2.43629537
  C     -5.37158308     -2.84567170      2.48255085
  H     -8.25608916     -4.47087534      3.18417514
  H     -6.77418478     -0.78851028      4.78326206
  H     -4.48777897     -2.93516607      1.85931349
  H     -6.22362005     -4.68318147      1.78421734
  C     -4.97287827      1.09047905      3.44060450
  C     -4.32082426      2.18418834      4.01965493
  C     -4.91803230      3.43465129      4.02868085
  C     -6.16147870      3.61894588      3.43716491
  C     -6.79809021      2.54947845      2.82246458
  C     -6.20754387      1.29535193      2.81965412
  H     -6.71355642      0.46493380      2.33978928
  H     -6.62966676      4.59607886      3.45019687
  H     -7.76122478      2.69070471      2.34565846
  H     -3.34593299      2.04920676      4.47606955
  H     -8.52490811     -2.51431887      4.67561970
  C     -3.55549054     -0.78958831      5.10667366
  C     -2.54260670     -1.73533759      5.28939130
  C     -2.05363840     -2.01501428      6.55489553
  C     -2.56450591     -1.34537464      7.65881504
  C     -3.57404701     -0.40762598      7.49051783
  C     -4.07216712     -0.13359651      6.22543016
  H     -2.17879630     -1.55773857      8.64896823
  H     -3.98080082      0.11247448      8.35000607
  H     -4.86551529      0.59573415      6.10984430
  H     -4.41365093      4.26790723      4.50467846
  H     -1.26932744     -2.75313407      6.67787559
  H     -2.14001969     -2.25665168      4.42671758
