246
Energy =   -372.44115928 au
 Au      0.25186680      0.35934973      0.22353633
 Au     -0.44453444     -2.21793765     -0.70984225
 Au     -1.55512920     -4.17608167      0.79461924
 Au     -0.64858081      0.65942526      2.69996752
 Au     -1.53645260     -1.83755154      1.87037764
 Au     -0.66593269      2.75425913      0.96237829
 Au      2.30307269     -1.50639322     -0.27489101
 Au      0.99643212     -0.73225347     -2.40003330
  P     -1.11810704     -6.11787823     -0.49117177
  C     -2.44536466     -6.78945699     -1.53264385
  C     -3.38155938     -5.88789445     -2.04995500
  C     -4.41831983     -6.33370017     -2.85329754
  C     -4.53897650     -7.68693672     -3.14213548
  C     -3.62127579     -8.59047434     -2.62438317
  C     -2.57927057     -8.14832980     -1.82331239
  H     -5.35284842     -8.03710097     -3.76602685
  H     -3.29281689     -4.83196243     -1.81415519
  H     -1.86762302     -8.86056642     -1.42165668
  H     -3.71670458     -9.64751676     -2.84374425
  C     -0.34473326     -7.53135676      0.34599215
  C     -0.72407509     -7.80332217      1.66346215
  C     -0.14903530     -8.85557782      2.35869062
  C      0.81627220     -9.64542610      1.74792585
  C      1.19992974     -9.38377138      0.43923848
  C      0.62499579     -8.33449222     -0.26074863
  H      0.93272473     -8.13318607     -1.28053070
  H      1.26868209    -10.46620372      2.29181721
  H      1.95129276    -10.00023724     -0.04036806
  H     -1.47548758     -7.18359464      2.14177972
  H     -5.13813710     -5.62525545     -3.24724095
  C      0.15104523     -5.56572336     -1.67882423
  C      1.41566359     -5.23506297     -1.17915270
  C      2.39451318     -4.72431672     -2.01583522
  C      2.11911887     -4.51827030     -3.36280374
  C      0.86222667     -4.82351190     -3.86477457
  C     -0.11630073     -5.34410972     -3.03015087
  H      2.88498279     -4.12876462     -4.02292002
  H      0.64432236     -4.66220969     -4.91449553
  H     -1.09222730     -5.58529056     -3.43551004
  H     -0.45277796     -9.05747968      3.37923427
  H      3.37588313     -4.49358641     -1.61647275
  H      1.63200953     -5.38848862     -0.12734264
  P     -3.15842865      2.30095091      0.13648571
  C     -3.64670114      0.54424165     -0.03050420
  C     -4.33429127     -0.13737393      0.97639082
  C     -4.65442261     -1.48077954      0.83544195
  C     -4.28349209     -2.17018410     -0.31028506
  C     -3.55767445     -1.51706320     -1.29821962
  C     -3.23479021     -0.17595631     -1.15654726
  H     -4.55007812     -3.21345777     -0.43051856
  H     -4.64112475      0.38824649      1.87286031
  H     -2.66992253      0.32242674     -1.93702026
  H     -3.25229400     -2.05412685     -2.18740188
  C     -3.83599775      3.06912330     -1.37969677
  C     -3.36306580      4.34565369     -1.70009294
  C     -3.79102797      4.99604093     -2.84622140
  C     -4.68923471      4.37203696     -3.70168852
  C     -5.16378507      3.10372939     -3.39697067
  C     -4.74507856      2.45529588     -2.24431494
  H     -5.12826195      1.46683486     -2.01885826
  H     -5.01873953      4.87342572     -4.60399793
  H     -5.86964856      2.61483703     -4.05877845
  H     -2.64972451      4.83175818     -1.04201812
  H     -5.20600113     -1.98457874      1.62067552
  C     -4.29295155      2.86869545      1.45449542
  C     -3.78469179      2.99539741      2.74955831
  C     -4.59194539      3.41820216      3.79428841
  C     -5.92542777      3.72348941      3.55608875
  C     -6.44225712      3.60714218      2.27230656
  C     -5.63464919      3.18500776      1.22739279
  H     -6.55875825      4.05851821      4.36899478
  H     -7.48153601      3.84923788      2.08270620
  H     -6.04633690      3.10231457      0.22779533
  H     -3.41535164      5.98701102     -3.07485866
  H     -4.17475054      3.52734253      4.78905787
  H     -2.73959985      2.76963514      2.93608451
  P     -0.34757190      5.10631794      1.38281815
  C     -1.59270726      5.90832814      2.44244605
  C     -1.29127712      6.44402192      3.69636047
  C     -2.29074688      6.99668110      4.48366926
  C     -3.60290926      7.02594673      4.03257706
  C     -3.91545706      6.49574797      2.78804167
  C     -2.92121672      5.93279213      2.00455904
  H     -4.38069329      7.46127088      4.64867318
  H     -0.26966095      6.43797330      4.05793301
  H     -3.17732188      5.50331204      1.04223923
  H     -4.93787549      6.51206061      2.42849089
  C     -0.29011639      6.12280964     -0.12787342
  C      0.58295735      5.71114803     -1.14124707
  C      0.67346474      6.41992967     -2.32834122
  C     -0.12416611      7.53840451     -2.53370413
  C     -1.00086738      7.94989829     -1.54027271
  C     -1.08095497      7.25275128     -0.34348524
  H     -1.75977137      7.59614775      0.42808645
  H     -0.05935423      8.08792842     -3.46534939
  H     -1.62340869      8.82392589     -1.69233564
  H      1.20113459      4.83232715     -0.99020949
  H     -2.03954049      7.41305650      5.45238081
  C      1.23542247      5.46967868      2.20817638
  C      1.59436567      4.67343713      3.30122313
  C      2.79757124      4.87019736      3.95875405
  C      3.67028204      5.85968759      3.52393738
  C      3.32749990      6.65393421      2.43897926
  C      2.11835935      6.46535150      1.78592830
  H      4.61557849      6.01053249      4.03167392
  H      4.00425328      7.42874214      2.09794814
  H      1.86104324      7.09527215      0.94254935
  H      1.36502475      6.09501302     -3.09727282
  H      3.05621579      4.24926949      4.80894922
  H      0.91737025      3.89255153      3.63296589
  P      3.05792695      0.65453370     -2.98453448
  C      3.03532757      2.00726013     -4.21453640
  C      3.08722856      3.36209896     -3.88297595
  C      3.02296277      4.33042105     -4.87413261
  C      2.89913012      3.96504328     -6.20679350
  C      2.84279292      2.62019669     -6.54869201
  C      2.90527221      1.65073751     -5.56189724
  H      2.84985937      4.72507534     -6.97741708
  H      3.19466979      3.66841778     -2.84907865
  H      2.86204358      0.60283791     -5.83821012
  H      2.74909100      2.32424458     -7.58713630
  C      4.47678906     -0.35154672     -3.53031331
  C      4.46620111     -1.72267025     -3.26866700
  C      5.52571839     -2.53011459     -3.65218482
  C      6.61540014     -1.97410349     -4.30852755
  C      6.63872262     -0.61177809     -4.57683613
  C      5.57949133      0.19579670     -4.19373095
  H      5.60655819      1.25756158     -4.41011453
  H      7.44349492     -2.60260217     -4.61402370
  H      7.48785391     -0.17414667     -5.08875636
  H      3.61416450     -2.15544391     -2.75599657
  H      3.07769730      5.37822107     -4.60139802
  C      3.67666970      1.43537108     -1.45468382
  C      2.82781926      2.31328653     -0.77278293
  C      3.20829751      2.86951793      0.43768509
  C      4.43564616      2.54405783      1.00049834
  C      5.27874626      1.65950267      0.34278955
  C      4.90473139      1.11056131     -0.87538971
  H      4.72720578      2.97483348      1.95132528
  H      6.23377794      1.39094695      0.77993604
  H      5.57373606      0.41973130     -1.37516415
  H      5.49809241     -3.59333409     -3.44294180
  H      2.53998449      3.55316260      0.94721815
  H      1.85751110      2.55510396     -1.19277554
  P      3.69525124     -2.09802836      1.54256122
  C      5.47884157     -1.92515870      1.25616628
  C      6.36971093     -1.40690537      2.19817692
  C      7.70625130     -1.23062255      1.87185440
  C      8.16883270     -1.56340989      0.60596667
  C      7.29071552     -2.07813029     -0.33906023
  C      5.95529217     -2.25347667     -0.01700362
  H      9.21248969     -1.41736821      0.35391181
  H      6.01700123     -1.13710146      3.18702145
  H      5.26597253     -2.64233300     -0.75928398
  H      7.64309867     -2.33495097     -1.33165572
  C      3.41637065     -3.81300086      2.07534308
  C      2.09097537     -4.18843303      2.31984648
  C      1.77863348     -5.49156393      2.66874135
  C      2.78649759     -6.44403909      2.76236510
  C      4.10314382     -6.08352485      2.51461015
  C      4.42016339     -4.77612497      2.17241694
  H      5.45117169     -4.50308363      1.97824823
  H      2.54071864     -7.46709522      3.02299118
  H      4.89108549     -6.82428824      2.58579684
  H      1.30179221     -3.44830305      2.23110193
  H      8.38885869     -0.82712114      2.61066580
  C      3.35216344     -1.12543075      3.04192715
  C      2.82352643      0.15774676      2.89391309
  C      2.51467908      0.93078805      4.00173538
  C      2.74359751      0.43646026      5.27901869
  C      3.28747338     -0.83039057      5.43874672
  C      3.58366767     -1.61123103      4.33099159
  H      2.49950217      1.03802976      6.14674201
  H      3.47285382     -1.21941426      6.43316203
  H      3.99010989     -2.60693770      4.46740386
  H      0.74704390     -5.76686779      2.85755318
  H      2.10496463      1.92402237      3.86363767
  H      2.65797810      0.55559314      1.89978802
  P     -1.48999123      0.01094761      4.81495819
  C     -0.43003953     -1.12765480      5.75534974
  C     -0.19635851     -1.00413508      7.12612871
  C      0.60186892     -1.92658773      7.78588210
  C      1.17302686     -2.98448747      7.09163324
  C      0.96024938     -3.10828273      5.72465430
  C      0.17553873     -2.17956127      5.06189814
  H      1.78875687     -3.70788246      7.61276021
  H     -0.64032979     -0.18558921      7.68060557
  H      0.03498313     -2.26269314      3.98882695
  H      1.41298513     -3.92312007      5.17078644
  C     -3.08000735     -0.86910292      4.69271113
  C     -4.25811924     -0.13328517      4.53622607
  C     -5.47191633     -0.77500122      4.34538940
  C     -5.52687805     -2.16205235      4.29076157
  C     -4.36180831     -2.90298648      4.43547022
  C     -3.14686050     -2.26376971      4.63318406
  H     -2.24952335     -2.85560698      4.76779779
  H     -6.47609852     -2.66347507      4.14427408
  H     -4.39679426     -3.98566703      4.39926851
  H     -4.22620997      0.94961959      4.57217308
  H      0.77420913     -1.81988706      8.85047679
  C     -1.85745620      1.41989842      5.89706355
  C     -1.30676378      2.66333183      5.58092676
  C     -1.59436715      3.78068608      6.34826557
  C     -2.43716388      3.66863191      7.44581671
  C     -2.98851943      2.43650575      7.77299508
  C     -2.70550514      1.31810211      7.00491024
  H     -2.66684944      4.54197643      8.04472578
  H     -3.64756913      2.34645385      8.62858431
  H     -3.15301829      0.36324723      7.25632886
  H     -6.37711851     -0.18851383      4.23838641
  H     -1.16484440      4.74020595      6.08413763
  H     -0.65280825      2.75121071      4.71962805
  P     -0.35951399     -0.39628162     -4.41006035
  C     -0.49572217      1.40075758     -4.66979323
  C     -0.44857805      2.03484060     -5.91180201
  C     -0.54956685      3.41555573     -6.00000365
  C     -0.69606214      4.18179080     -4.85238632
  C     -0.73464099      3.56227140     -3.61065184
  C     -0.63240592      2.18537121     -3.52059354
  H     -0.77389911      5.26055704     -4.92239985
  H     -0.32305635      1.44964005     -6.81524616
  H     -0.65489101      1.70667622     -2.54638432
  H     -0.84034039      4.15329794     -2.70889752
  C     -2.08249665     -0.97663168     -4.57009889
  C     -2.30021543     -2.35866208     -4.59887739
  C     -3.58477065     -2.86873552     -4.69582613
  C     -4.67313017     -2.00589943     -4.74909675
  C     -4.46862668     -0.63427047     -4.70515005
  C     -3.18320219     -0.11921648     -4.61571786
  H     -3.03711137      0.95470849     -4.58906186
  H     -5.67813078     -2.40403483     -4.82349726
  H     -5.31433437      0.04273550     -4.74476866
  H     -1.45246305     -3.03471236     -4.55164341
  H     -0.50908103      3.89454988     -6.97136408
  C      0.39766518     -1.08479410     -5.91464614
  C      1.68052069     -1.62980134     -5.82191174
  C      2.30315808     -2.17677833     -6.93310476
  C      1.64640728     -2.19080581     -8.15598311
  C      0.36350157     -1.66903905     -8.25835459
  C     -0.26174369     -1.12465521     -7.14726820
  H      2.13003113     -2.61694679     -9.02701049
  H     -0.15645593     -1.69041117     -9.20905787
  H     -1.27214085     -0.74095033     -7.23271947
  H     -3.73682395     -3.94156606     -4.72940695
  H      3.29916878     -2.59467335     -6.84119596
  H      2.18761171     -1.63297517     -4.86304530
