246
Energy =   -372.45882987 au
 Au      0.56518485     -1.12796291      1.13813443
 Au     -2.36833959      1.38896816     -2.37640326
 Au      1.25286504      1.45923902      1.12099725
 Au     -0.88780065      0.63215283      2.62697754
 Au     -0.49665869     -3.13360500     -0.37012684
 Au     -1.30068202      0.81270074     -0.05729085
 Au     -0.51487792     -0.55727661     -2.19684633
 Au      2.02804627     -3.16146482      0.17296499
  P      2.60685525      3.30406868      0.56290305
  C      1.70213757      4.87058377      0.71500189
  C      1.13420231      5.17260733      1.95863867
  C      0.36750761      6.31468959      2.12321355
  C      0.13957748      7.16050881      1.04497511
  C      0.68680344      6.86272449     -0.19531435
  C      1.46402882      5.72517397     -0.36208673
  H     -0.46699538      8.04932485      1.17211878
  H      1.29844176      4.50571188      2.79934475
  H      1.88911129      5.50216915     -1.33411596
  H      0.51169547      7.52007258     -1.03907257
  C      3.17958585      3.24220258     -1.16009563
  C      2.31237650      2.70962601     -2.11837200
  C      2.70549041      2.60166641     -3.44204930
  C      3.97418181      3.01480085     -3.82652028
  C      4.84545400      3.53981065     -2.88195032
  C      4.45337526      3.65426123     -1.55666227
  H      5.14011297      4.06266249     -0.82418152
  H      4.28384269      2.92211139     -4.86079662
  H      5.83734427      3.86123136     -3.17753308
  H      1.32506796      2.37255388     -1.81850429
  H     -0.05987950      6.54075932      3.09353417
  C      4.10518312      3.49981894      1.56829363
  C      4.85459203      2.34802957      1.82942261
  C      5.98627019      2.40686955      2.62507001
  C      6.37995776      3.61796401      3.18053297
  C      5.64182824      4.76643994      2.93081074
  C      4.51049436      4.71187531      2.12999092
  H      7.26126850      3.66492576      3.80922891
  H      5.94715766      5.71286661      3.36175132
  H      3.93961570      5.61369037      1.94139261
  H      2.02224888      2.18703474     -4.17421794
  H      6.55687651      1.50541202      2.81767763
  H      4.54191174      1.40037901      1.40247964
  P     -0.24866995     -0.38139212      4.82994750
  C     -1.59255968     -0.70020497      6.01769073
  C     -1.96330215     -1.98134688      6.43184762
  C     -3.07028343     -2.16098317      7.24843684
  C     -3.82100285     -1.06906188      7.66055568
  C     -3.46157508      0.20973750      7.25400621
  C     -2.36194457      0.39280465      6.43288650
  H     -4.68610787     -1.21286772      8.29695842
  H     -1.38457751     -2.84173903      6.11623272
  H     -2.09235742      1.39277639      6.10726702
  H     -4.04484839      1.06650652      7.57123016
  C      0.93520668      0.65629570      5.74909262
  C      1.76339461      1.51498604      5.01977999
  C      2.67958912      2.33447665      5.65951697
  C      2.77847623      2.30969643      7.04462135
  C      1.95869625      1.46566070      7.78146269
  C      1.04210877      0.64461865      7.14197672
  H      0.40152948     -0.00671341      7.72549026
  H      3.49126834      2.95153099      7.54874323
  H      2.03162210      1.44678155      8.86257424
  H      1.68252446      1.54277458      3.93740510
  H     -3.34533506     -3.16061423      7.56451057
  C      0.61479132     -1.98252207      4.67173880
  C      0.07079198     -2.93656440      3.80467597
  C      0.71266998     -4.14507843      3.58449582
  C      1.91264861     -4.42045827      4.22710713
  C      2.45827125     -3.48523458      5.09441591
  C      1.81913737     -2.27370616      5.31375646
  H      2.42041535     -5.36181805      4.05211755
  H      3.39361415     -3.69520375      5.60017658
  H      2.26434679     -1.54970101      5.98628657
  H      3.31124899      2.99540690      5.07646506
  H      0.27396230     -4.87165257      2.91003338
  H     -0.86875240     -2.73137923      3.30422698
  P     -3.03073910      2.42515438     -4.42076381
  C     -4.35728005      3.67177973     -4.48490906
  C     -4.14511555      4.98745345     -4.90366371
  C     -5.18236183      5.90803035     -4.87711436
  C     -6.44081465      5.53233860     -4.42964230
  C     -6.66218892      4.22884224     -4.00395064
  C     -5.62767834      3.30788825     -4.02482473
  H     -7.24879888      6.25402138     -4.41009360
  H     -3.16681346      5.29239691     -5.25640640
  H     -5.80450499      2.29304585     -3.68574927
  H     -7.64242581      3.92917508     -3.65174114
  C     -3.41031883      1.26649254     -5.77140728
  C     -2.72263571      0.05028019     -5.79163686
  C     -2.93735858     -0.86900087     -6.80596018
  C     -3.85503495     -0.58936117     -7.81055891
  C     -4.55385100      0.60975695     -7.79395184
  C     -4.33420730      1.53446071     -6.78386011
  H     -4.88342693      2.46885396     -6.77991458
  H     -4.02741612     -1.30828236     -8.60277434
  H     -5.27353748      0.82925861     -8.57396231
  H     -2.01337268     -0.17451942     -5.00147616
  H     -5.00382001      6.92427021     -5.20892327
  C     -1.56634380      3.30999354     -5.04407252
  C     -0.70125690      3.88637261     -4.11111490
  C      0.42421345      4.58216271     -4.52322874
  C      0.71289138      4.69486776     -5.87674473
  C     -0.13243770      4.11587827     -6.81375447
  C     -1.26702964      3.43202070     -6.40330314
  H      1.59618894      5.23283221     -6.20031798
  H      0.08858012      4.20275397     -7.87125001
  H     -1.92613457      2.99122583     -7.14258961
  H     -2.38816207     -1.80391066     -6.81140419
  H      1.07916530      5.03271060     -3.78591941
  H     -0.91710787      3.78652569     -3.05259263
  P     -2.69938374      2.28898048      2.91468244
  C     -3.07369291      3.12894218      1.33473205
  C     -4.27596257      3.01665836      0.63778335
  C     -4.42444919      3.61681187     -0.60540876
  C     -3.38129534      4.34272425     -1.16462808
  C     -2.18007407      4.46728952     -0.47582764
  C     -2.02747966      3.85902415      0.75784825
  H     -3.50581022      4.82142920     -2.12844935
  H     -5.10402354      2.46291744      1.06430220
  H     -1.08759199      3.95426162      1.29121718
  H     -1.36307812      5.04035029     -0.89940600
  C     -2.20674344      3.70869305      3.94220511
  C     -1.01846888      3.63868449      4.66967089
  C     -0.58398903      4.71552884      5.42687407
  C     -1.33515901      5.88244264      5.46271383
  C     -2.51849663      5.96687404      4.73851384
  C     -2.95282252      4.89136039      3.98025450
  H     -3.87016673      4.96909899      3.40739352
  H     -0.99960907      6.72661417      6.05340737
  H     -3.10477210      6.87805310      4.76251520
  H     -0.42715601      2.73147047      4.63372195
  H     -5.36368986      3.52287647     -1.13869835
  C     -4.30712417      1.72916705      3.55189341
  C     -4.93687405      0.67167974      2.88532324
  C     -6.12700803      0.14567459      3.36098855
  C     -6.69778394      0.65643060      4.51939878
  C     -6.07493743      1.69597535      5.19589665
  C     -4.88642240      2.22932304      4.71964608
  H     -7.62470946      0.24087485      4.89648293
  H     -6.51502463      2.09523388      6.10229063
  H     -4.40828226      3.03901646      5.25859618
  H      0.34275640      4.64209371      5.98470441
  H     -6.60322756     -0.67145449      2.83132768
  H     -4.48259930      0.25437910      1.99232490
  P     -2.84653502     -3.52310668     -0.54149252
  C     -3.35776003     -5.17523091     -1.09172391
  C     -4.61891257     -5.45456339     -1.62745925
  C     -4.94323064     -6.74544096     -2.01468820
  C     -4.02047915     -7.77292040     -1.86973649
  C     -2.76717759     -7.50807175     -1.33444458
  C     -2.43774229     -6.21760808     -0.95043761
  H     -4.27857565     -8.78013342     -2.17481897
  H     -5.34538963     -4.65839234     -1.74395215
  H     -1.45699681     -6.00883000     -0.53526933
  H     -2.04359649     -8.30649288     -1.21707669
  C     -3.81265295     -2.37669023     -1.57390343
  C     -4.41384568     -1.23070971     -1.05162751
  C     -5.06990339     -0.33603643     -1.88617941
  C     -5.14325986     -0.58292949     -3.25142358
  C     -4.53524316     -1.71200194     -3.78337951
  C     -3.85992896     -2.59250462     -2.95520579
  H     -3.37844440     -3.46732006     -3.37895471
  H     -5.67638357      0.10053158     -3.90126917
  H     -4.58737139     -1.90636262     -4.84804056
  H     -4.37926138     -1.03814538      0.01465827
  H     -5.92285256     -6.95023595     -2.43069184
  C     -3.57820981     -3.35227929      1.11925484
  C     -3.10103430     -2.32755150      1.94038362
  C     -3.56970826     -2.17493479      3.23511730
  C     -4.52366018     -3.05076686      3.73505693
  C     -5.00737158     -4.07229221      2.92959731
  C     -4.53938745     -4.22471525      1.63251934
  H     -4.88274918     -2.93751975      4.75145505
  H     -5.75146928     -4.76013297      3.31407599
  H     -4.92154844     -5.03121503      1.01743180
  H     -5.54455094      0.54224982     -1.46445099
  H     -3.18498407     -1.37321000      3.85472566
  H     -2.34929871     -1.64537608      1.55922420
  P      4.31534393     -3.48632486      0.81523060
  C      4.66421164     -2.59858577      2.37121308
  C      5.46704986     -3.11422655      3.39021011
  C      5.69486506     -2.38217944      4.54649918
  C      5.12307588     -1.12693271      4.70467884
  C      4.31707409     -0.60652864      3.70100706
  C      4.09052715     -1.33673579      2.54572351
  H      5.29957491     -0.55674392      5.60923637
  H      5.91524270     -4.09518568      3.28223093
  H      3.45684407     -0.92629640      1.76628522
  H      3.85992150      0.36885480      3.82115923
  C      5.71014758     -2.99942416     -0.25287354
  C      5.91632950     -3.71157760     -1.43914811
  C      6.93620317     -3.35775428     -2.30686007
  C      7.76648705     -2.28595410     -2.00441698
  C      7.56743487     -1.56808128     -0.83315844
  C      6.54216816     -1.91586624      0.03449100
  H      6.39713582     -1.34725885      0.94603657
  H      8.56853930     -2.01294654     -2.67990823
  H      8.21559329     -0.73420573     -0.58890003
  H      5.28213675     -4.56058820     -1.67120604
  H      6.32289094     -2.79536931      5.32722314
  C      4.65846736     -5.22891027      1.19282645
  C      3.56865008     -6.07331798      1.41931800
  C      3.76033212     -7.40979284      1.73035296
  C      5.04767401     -7.92344621      1.81213988
  C      6.13908716     -7.09806399      1.57660248
  C      5.94983284     -5.75982116      1.26808935
  H      5.20001997     -8.96894303      2.05284380
  H      7.14464866     -7.49852058      1.63199742
  H      6.80694579     -5.12492507      1.07437272
  H      7.08732443     -3.92296722     -3.21922067
  H      2.90433500     -8.05165314      1.90405548
  H      2.56270186     -5.67297027      1.34229909
  P      1.08304087     -1.64472351     -3.54229372
  C      1.20427625     -3.43739982     -3.28027302
  C      0.04303858     -4.20309972     -3.43300116
  C      0.05094676     -5.56009362     -3.15002257
  C      1.20891130     -6.16676273     -2.68022926
  C      2.36187878     -5.41411954     -2.50917327
  C      2.36372300     -4.05817377     -2.80933855
  H      1.21106018     -7.22497351     -2.44731621
  H     -0.86787154     -3.72922771     -3.78343187
  H      3.27497470     -3.48357514     -2.69561457
  H      3.26843107     -5.88174480     -2.14265410
  C      2.75916688     -1.01644574     -3.21626294
  C      3.04879013     -0.51074339     -1.94744409
  C      4.30666127     -0.01291529     -1.65155741
  C      5.29004056      0.00844358     -2.63045150
  C      5.01493610     -0.48790214     -3.89751577
  C      3.76065536     -1.00072188     -4.19054653
  H      3.55350843     -1.38485942     -5.18279714
  H      6.26995309      0.41219878     -2.40539506
  H      5.78204190     -0.47507004     -4.66303086
  H      2.27369666     -0.49582860     -1.19002337
  H     -0.85225041     -6.14306251     -3.28791310
  C      0.85923770     -1.40166048     -5.32716417
  C      0.63322289     -0.09101031     -5.76197343
  C      0.43144703      0.18246748     -7.10407463
  C      0.43274815     -0.85306781     -8.03003337
  C      0.64288223     -2.15835573     -7.60747943
  C      0.85802322     -2.43503678     -6.26486441
  H      0.26581019     -0.64220754     -9.07966567
  H      0.64199382     -2.96851529     -8.32721445
  H      1.02524603     -3.45706829     -5.94514002
  H      4.51434968      0.37064078     -0.65894151
  H      0.26187524      1.20417231     -7.42443595
  H      0.61389091      0.71673576     -5.03715755
