246
Energy =   -372.41728962 au
 Au     -0.17581445     -0.34579759     -3.36027466
 Au      0.39024406      0.11593813      1.93656783
 Au     -2.09809584     -0.17189523      3.29130096
 Au     -1.58347168      2.23516667      2.18666678
 Au     -2.39551921      0.20557413      0.68710045
 Au      2.45055552      0.28942942      0.32749858
 Au     -2.39428941     -0.66727813     -1.88036109
 Au      0.06912527     -0.61772562     -0.75452606
  P     -0.41224340     -0.09613339     -5.70570481
  C      0.78802555      0.85489642     -6.68871821
  C      0.72734947      0.91230601     -8.08460476
  C      1.63618986      1.68276166     -8.79151500
  C      2.60991808      2.41023878     -8.11892826
  C      2.67096505      2.36751910     -6.73348404
  C      1.76474385      1.59504866     -6.02319564
  H      3.31860303      3.01205657     -8.67552188
  H     -0.03387557      0.35373321     -8.61754038
  H      1.81189923      1.55793279     -4.94103783
  H      3.42434272      2.93704839     -6.20124361
  C     -1.95753612      0.82516950     -5.99753497
  C     -2.35733945      1.75686237     -5.03711312
  C     -3.50682730      2.50989071     -5.21401500
  C     -4.28004865      2.33769355     -6.35426602
  C     -3.88958254      1.41962957     -7.32056573
  C     -2.73455934      0.67161465     -7.14834998
  H     -2.44029079     -0.04108523     -7.91014673
  H     -5.18405880      2.91964441     -6.48997085
  H     -4.48623916      1.28590244     -8.21539390
  H     -1.75869076      1.89067432     -4.14198517
  H      1.58246841      1.71770126     -9.87337760
  C     -0.64339659     -1.65424865     -6.60701266
  C      0.38254497     -2.23158096     -7.35882466
  C      0.19771416     -3.46042015     -7.97385619
  C     -1.01122396     -4.13099117     -7.84681023
  C     -2.03316900     -3.57307656     -7.08912449
  C     -1.84622827     -2.35193030     -6.46191936
  H     -1.15758189     -5.08607402     -8.33711450
  H     -2.98040895     -4.09017377     -6.98408526
  H     -2.64343860     -1.92666100     -5.86171595
  H     -3.80182804      3.22842972     -4.45784371
  H      1.00069753     -3.89314178     -8.55923877
  H      1.32695341     -1.71112105     -7.47058662
  P     -4.73483906     -0.76976144     -2.31423760
  C     -5.14004669     -1.77202239     -3.77587482
  C     -5.37880782     -3.14322993     -3.64969340
  C     -5.58962398     -3.92643627     -4.77383937
  C     -5.56175922     -3.35477112     -6.03925663
  C     -5.30797766     -1.99621526     -6.17691644
  C     -5.08537718     -1.21147271     -5.05535491
  H     -5.74038936     -3.96587551     -6.91602388
  H     -5.40969881     -3.59710219     -2.66526621
  H     -4.87851277     -0.15385643     -5.17331784
  H     -5.28092319     -1.54286613     -7.16122309
  C     -5.47422574      0.86237799     -2.61453390
  C     -4.87305660      1.96944163     -2.01029896
  C     -5.39592731      3.24176334     -2.17875895
  C     -6.52751255      3.42734878     -2.96236108
  C     -7.13335594      2.33610115     -3.57010901
  C     -6.61579149      1.06144353     -3.39701388
  H     -7.09810770      0.21759628     -3.87658301
  H     -6.93539760      4.42179175     -3.09980362
  H     -8.01691801      2.47668964     -4.18171755
  H     -3.98389745      1.82863632     -1.40409116
  H     -5.78284232     -4.98681883     -4.66026611
  C     -5.74994135     -1.49442397     -0.98888897
  C     -5.16323222     -2.43733741     -0.14114553
  C     -5.90462836     -3.03244429      0.86711942
  C     -7.23490895     -2.68419756      1.05294749
  C     -7.82356440     -1.73903904      0.22395372
  C     -7.08905428     -1.14920100     -0.79254195
  H     -7.81122818     -3.14754894      1.84510182
  H     -8.86112046     -1.46053899      0.36705621
  H     -7.55913215     -0.41383869     -1.43534675
  H     -4.91830777      4.08896819     -1.69953429
  H     -5.44037428     -3.76963742      1.51118292
  H     -4.11901431     -2.70245830     -0.27350015
  P      3.56920042      0.85047528     -1.77312868
  C      5.33870887      1.25136000     -1.62711562
  C      6.35242449      0.46518083     -2.17797908
  C      7.68483702      0.79031703     -1.96923154
  C      8.02493337      1.89057617     -1.19552394
  C      7.02562888      2.67048182     -0.62749708
  C      5.69497015      2.35206754     -0.83972035
  H      9.06680278      2.13758466     -1.02980128
  H      6.10224441     -0.40607654     -2.77208993
  H      4.91734307      2.96481071     -0.39599247
  H      7.28326406      3.52745376     -0.01591015
  C      2.88361501      2.36515584     -2.54254341
  C      1.50567907      2.58799065     -2.47189680
  C      0.92438456      3.68650988     -3.08595580
  C      1.71776779      4.59760670     -3.76952952
  C      3.09075684      4.40137866     -3.83158925
  C      3.67060954      3.29426995     -3.22876427
  H      4.74387720      3.15773469     -3.28857571
  H      1.26885531      5.46053214     -4.24678992
  H      3.71790740      5.11439413     -4.35402223
  H      0.88240990      1.89749704     -1.91754768
  H      8.46055502      0.17425346     -2.40898220
  C      3.48852472     -0.30290399     -3.18971717
  C      2.80685401     -1.51418363     -3.06452102
  C      2.70089348     -2.38260463     -4.14209183
  C      3.28859640     -2.05986076     -5.35630532
  C      3.97394159     -0.86001453     -5.49332997
  C      4.06911934      0.01411568     -4.42195128
  H      3.21934597     -2.74608545     -6.19195787
  H      4.43290502     -0.59971589     -6.43998424
  H      4.59841404      0.95240678     -4.54383903
  H     -0.14785473      3.83289378     -3.02080581
  H      2.16416225     -3.31658388     -4.02745452
  H      2.37451854     -1.79014886     -2.11006595
  P     -1.94831943     -1.30261211      5.36457147
  C     -1.27176912     -0.25108900      6.68635855
  C     -1.55965698     -0.45307176      8.03821193
  C     -0.95413498      0.33161117      9.00757413
  C     -0.04542646      1.31599331      8.64384777
  C      0.24654665      1.52580293      7.30289814
  C     -0.37055926      0.75534179      6.33054941
  H      0.43324091      1.92186840      9.40419499
  H     -2.26275154     -1.22382118      8.33256017
  H     -0.15465452      0.93423672      5.28189131
  H      0.95369634      2.29364591      7.01161653
  C     -0.82107063     -2.73233244      5.39018062
  C      0.02230134     -2.96627561      4.30401083
  C      0.88728362     -4.04858319      4.29901603
  C      0.92569842     -4.91239455      5.38427933
  C      0.10927165     -4.67688783      6.48309919
  C     -0.75496614     -3.59400359      6.49040710
  H     -1.38134808     -3.41363232      7.35672916
  H      1.59742591     -5.76271164      5.37761437
  H      0.14592242     -5.33956923      7.33981352
  H      0.00812370     -2.28883729      3.45705285
  H     -1.18934189      0.16832242     10.05282595
  C     -3.53142867     -1.90865293      6.01189984
  C     -4.46102276     -0.96451366      6.46281771
  C     -5.72177778     -1.36023644      6.87785466
  C     -6.08014879     -2.70148845      6.83415398
  C     -5.17156553     -3.64450040      6.37510254
  C     -3.90648248     -3.25350925      5.96237215
  H     -7.06758496     -3.01026110      7.15622910
  H     -5.44638304     -4.69229688      6.33700332
  H     -3.20453461     -4.00129044      5.61168314
  H      1.53540125     -4.21468373      3.44712653
  H     -6.42812837     -0.61913772      7.23351246
  H     -4.18763274      0.08519108      6.49120456
  P     -0.00473063     -3.30863817     -0.19218972
  C      1.47524502     -4.14498282      0.50458836
  C      1.44947696     -5.41693945      1.08361248
  C      2.60552349     -5.98320378      1.59960796
  C      3.80801042     -5.29186240      1.54504125
  C      3.84733764     -4.02695480      0.97608643
  C      2.69039107     -3.45683591      0.46953179
  H      4.71105592     -5.73560166      1.94723144
  H      0.51993046     -5.97130506      1.13669653
  H      2.72848554     -2.45981257      0.04054358
  H      4.78352898     -3.48336802      0.92966662
  C     -0.18465179     -4.11482706     -1.82539364
  C     -1.38776838     -3.91880829     -2.51168525
  C     -1.58329527     -4.44989095     -3.77438027
  C     -0.57178960     -5.18470535     -4.38007935
  C      0.62844764     -5.38461986     -3.71348607
  C      0.82426424     -4.85200386     -2.44544702
  H      1.76361021     -5.02139192     -1.93168921
  H     -0.72110034     -5.60027937     -5.36969311
  H      1.41695143     -5.96553073     -4.17793553
  H     -2.18811854     -3.35800997     -2.03695413
  H      2.56510767     -6.97039850      2.04522531
  C     -1.37812763     -4.13738153      0.70551469
  C     -2.00972472     -3.43750798      1.73192284
  C     -3.00896635     -4.02285032      2.49207491
  C     -3.40129063     -5.32853704      2.22953140
  C     -2.80699452     -6.02776749      1.18732809
  C     -1.80707513     -5.43933481      0.42819600
  H     -4.17277288     -5.79615425      2.82991096
  H     -3.12167372     -7.04087470      0.96518496
  H     -1.36125045     -5.99348215     -0.38973920
  H     -2.52772349     -4.29337987     -4.28356170
  H     -3.47984052     -3.45691921      3.28780965
  H     -1.71094503     -2.41560075      1.93737284
  P     -0.92912637      4.43510135      2.69496762
  C     -2.27104609      5.63664275      2.46004907
  C     -2.38641961      6.81937280      3.19531960
  C     -3.41698812      7.70847819      2.93141123
  C     -4.34127988      7.43348433      1.93283239
  C     -4.23658458      6.26052421      1.19722523
  C     -3.21040609      5.36807856      1.46074271
  H     -5.14526186      8.13117829      1.73032017
  H     -1.67387234      7.04291520      3.98098989
  H     -3.13265036      4.44847184      0.88910045
  H     -4.95759820      6.03770580      0.41882326
  C      0.43159690      5.12452472      1.69882802
  C      1.07823860      4.33577089      0.74813786
  C      2.12317062      4.85580385     -0.00203114
  C      2.52839365      6.17023827      0.17956851
  C      1.88364632      6.96807752      1.11654448
  C      0.84420351      6.45000145      1.87114983
  H      0.34790218      7.07814838      2.60220331
  H      3.34350137      6.57249171     -0.41041648
  H      2.19252308      7.99675570      1.26055366
  H      0.76554372      3.30733947      0.59852320
  H     -3.49741374      8.62132670      3.51004815
  C     -0.36441023      4.66600474      4.40516963
  C     -1.29959155      4.72959206      5.44313104
  C     -0.88149664      4.86525889      6.75713398
  C      0.47412447      4.91998585      7.05629997
  C      1.41104987      4.82037933      6.03588595
  C      0.99612856      4.68943712      4.71975298
  H      0.79934982      5.03556681      8.08344814
  H      2.47093993      4.84892529      6.26242632
  H      1.73548290      4.61516544      3.92992141
  H      2.62333354      4.23205994     -0.73201441
  H     -1.61629331      4.92925073      7.55122333
  H     -2.35915681      4.68310977      5.21615003
  P      4.19625107      0.53247163      2.19487489
  C      5.90024465      0.04022355      1.75854511
  C      7.04568774      0.55686495      2.36632662
  C      8.30071381      0.08861044      2.00803874
  C      8.43085877     -0.90387865      1.04623136
  C      7.29994175     -1.41408634      0.42318174
  C      6.04597657     -0.93610324      0.76911900
  H      9.41299729     -1.27262341      0.77508591
  H      6.95919462      1.32891558      3.12209513
  H      5.16403387     -1.31121131      0.25984949
  H      7.39394487     -2.17792192     -0.34008350
  C      3.82474257     -0.60134772      3.58077205
  C      2.81818685     -0.25174482      4.48764649
  C      2.48800309     -1.09451532      5.53602223
  C      3.14025322     -2.31137761      5.68524786
  C      4.11496729     -2.68525004      4.77158786
  C      4.45595124     -1.83715549      3.72833332
  H      5.22997918     -2.13617682      3.03109511
  H      2.88355978     -2.96769932      6.50838699
  H      4.62057196     -3.63858180      4.87429009
  H      2.30637716      0.69946734      4.38153576
  H      9.18193966      0.49922321      2.48715722
  C      4.39251140      2.12193266      3.07687078
  C      4.03173004      3.29551315      2.41360526
  C      4.18623584      4.53272165      3.02069550
  C      4.69489561      4.61337732      4.31030589
  C      5.03867330      3.45195451      4.98968860
  C      4.89099382      2.21548660      4.38041852
  H      4.82185732      5.57935372      4.78478757
  H      5.42990731      3.50887190      5.99889136
  H      5.15843964      1.31627121      4.92338236
  H      1.71919067     -0.80004067      6.24109902
  H      3.91461922      5.43462000      2.48373962
  H      3.62062855      3.23528823      1.41182618
