#B3LYP/6-31+G(d) OPT FREQ

246, Energy =   -372.44690764 au

0 1
 Au     -0.07582160      0.04843874      0.55507770
 Au      0.21391870     -0.18478340      3.18608681
 Au     -2.05389522      1.16428767      2.30127312
 Au      0.00551486     -2.54453695      1.65647634
 Au     -0.41443346     -0.35140398     -2.18995139
 Au     -2.19425586      1.22601595     -0.51293167
 Au      0.45952930      2.02164692     -1.38243448
 Au      2.25384451     -1.22578693      1.32135715
  P     -1.38929079     -4.40626665      2.07355302
  C     -1.26749740     -5.78291890      0.89490523
  C     -0.44558234     -6.88595034      1.13678502
  C     -0.28731256     -7.86737791      0.17001438
  C     -0.93827734     -7.75806813     -1.05115844
  C     -1.74864656     -6.65953109     -1.30556639
  C     -1.90625854     -5.67504673     -0.34416114
  H     -0.81290350     -8.52637568     -1.80489131
  H      0.06698471     -6.97961669      2.08749086
  H     -2.53222553     -4.81401336     -0.54854253
  H     -2.25647729     -6.56460416     -2.25867469
  C     -3.15875435     -3.99273387      2.12794121
  C     -3.51249358     -2.67358342      2.41979713
  C     -4.84261328     -2.28948956      2.46998072
  C     -5.84233181     -3.22274012      2.22668069
  C     -5.50374523     -4.53774454      1.93533037
  C     -4.17267373     -4.92304541      1.88409444
  H     -3.91948654     -5.94918891      1.64378844
  H     -6.88356430     -2.92479231      2.26263474
  H     -6.28087985     -5.26872369      1.74469345
  H     -2.73357624     -1.94040493      2.60265204
  H      0.34792083     -8.72186298      0.37251770
  C     -1.01124053     -5.15952025      3.68401219
  C      0.24341559     -4.91490032      4.24781214
  C      0.60230091     -5.49500619      5.45373518
  C     -0.29280122     -6.32379960      6.11635363
  C     -1.54855525     -6.56265541      5.57304851
  C     -1.90856179     -5.98560986      4.36542071
  H     -0.01378861     -6.77965516      7.05893457
  H     -2.25159234     -7.20345666      6.09225260
  H     -2.89086807     -6.17724575      3.94875659
  H     -5.09822074     -1.26052676      2.69662687
  H      1.57967411     -5.29610635      5.87816495
  H      0.94141361     -4.26298035      3.73219916
  P      0.79500518      2.84426888     -3.78424273
  C      2.07952209      1.79194373     -4.53414260
  C      1.98097645      1.21925010     -5.80309575
  C      3.00842956      0.42836348     -6.29634079
  C      4.14609362      0.20250443     -5.53489590
  C      4.25046339      0.75854119     -4.26636597
  C      3.22101778      1.53821562     -3.76731035
  H      4.95096853     -0.40772828     -5.92733813
  H      1.10028642      1.39406809     -6.41008190
  H      3.29673923      1.96496917     -2.77211391
  H      5.13481484      0.58019003     -3.66519086
  C      1.43009390      4.53473278     -4.05818772
  C      0.71566344      5.59548532     -3.49179975
  C      1.12455580      6.90540767     -3.67738492
  C      2.26771383      7.17535898     -4.41871793
  C      2.99760472      6.13022621     -4.96729031
  C      2.58368616      4.81796541     -4.79163227
  H      3.15868902      4.01154907     -5.23136198
  H      2.59134895      8.19927720     -4.56316018
  H      3.89346405      6.33593066     -5.54154809
  H     -0.16930892      5.38535035     -2.90044821
  H      2.92312371     -0.00505578     -7.28623859
  C     -0.58477663      2.73442279     -4.98138545
  C     -1.36841004      1.57831691     -4.99277470
  C     -2.43494984      1.44426878     -5.86483651
  C     -2.75204287      2.47843286     -6.73540465
  C     -1.98687766      3.63573341     -6.73328774
  C     -0.91056941      3.76424302     -5.86790418
  H     -3.59201604      2.38033233     -7.41274620
  H     -2.22573198      4.44626383     -7.41195432
  H     -0.31853281      4.67138810     -5.88648932
  H      0.55536387      7.71554677     -3.23643242
  H     -3.01663630      0.52955826     -5.86890461
  H     -1.13233908      0.76735154     -4.30974000
  P     -1.07869649     -2.34318686     -3.32142891
  C     -2.68054572     -3.00258483     -2.76028310
  C     -3.27449794     -4.12698347     -3.34244758
  C     -4.47082168     -4.62315973     -2.84773231
  C     -5.08424752     -4.01473807     -1.75983551
  C     -4.50031844     -2.90231902     -1.16998192
  C     -3.30835483     -2.40102943     -1.66856274
  H     -6.01645004     -4.40744129     -1.37110810
  H     -2.79389967     -4.61710322     -4.18172112
  H     -2.85697529     -1.52995797     -1.20553527
  H     -4.97560024     -2.41939260     -0.32387311
  C      0.03179044     -3.75430734     -3.01032050
  C      0.57192805     -3.86667915     -1.72721583
  C      1.41449828     -4.91426315     -1.39703268
  C      1.73162505     -5.87074878     -2.35246444
  C      1.20143718     -5.77137187     -3.63155309
  C      0.35641590     -4.72199636     -3.96232692
  H     -0.04992175     -4.65331879     -4.96478711
  H      2.39097344     -6.69252081     -2.09942861
  H      1.44634915     -6.51675415     -4.37920370
  H      0.32303129     -3.12021972     -0.97946920
  H     -4.92424064     -5.49174956     -3.31075751
  C     -1.17679343     -2.20684904     -5.12794911
  C     -2.38132361     -2.19168320     -5.83350004
  C     -2.39166996     -1.96181291     -7.20194933
  C     -1.20350551     -1.73430335     -7.88166311
  C     -0.00033468     -1.73132455     -7.18744005
  C      0.01357899     -1.95609879     -5.82119976
  H     -1.21410249     -1.55527793     -8.95020444
  H      0.93043422     -1.55022535     -7.71260769
  H      0.95486090     -1.93731546     -5.28061062
  H      1.82184615     -4.98271737     -0.39452124
  H     -3.33393718     -1.96056126     -7.73749329
  H     -3.31632575     -2.36391664     -5.31300931
  P      4.56262171     -1.14782821      0.68479923
  C      5.38618121      0.46815983      0.77368292
  C      5.98280802      0.89815073      1.96336125
  C      6.47317183      2.18989359      2.07599414
  C      6.36555663      3.07371327      1.01057395
  C      5.76877299      2.65933889     -0.17245122
  C      5.27592059      1.36937782     -0.28827441
  H      6.74607304      4.08415273      1.10198542
  H      6.06354716      0.21693145      2.80372199
  H      4.80549830      1.05153424     -1.21193505
  H      5.68693802      3.34319987     -1.00962879
  C      4.71452776     -1.64907320     -1.06206937
  C      3.55584733     -1.93152048     -1.78726699
  C      3.62688893     -2.37545780     -3.09808320
  C      4.86291043     -2.54712944     -3.70464838
  C      6.02432862     -2.25591583     -2.99992931
  C      5.95317965     -1.81045686     -1.68964912
  H      6.86587922     -1.59254649     -1.14694663
  H      4.92198685     -2.90683349     -4.72517033
  H      6.99142297     -2.38266767     -3.47223971
  H      2.58713169     -1.80680999     -1.31547033
  H      6.93719336      2.50862396      3.00220427
  C      5.66057788     -2.30693891      1.55298911
  C      5.07077815     -3.41924427      2.16026754
  C      5.84576537     -4.35745043      2.82390708
  C      7.22304629     -4.19376993      2.89313757
  C      7.81985002     -3.09199106      2.29553316
  C      7.04759965     -2.15373719      1.62804393
  H      7.83038053     -4.92387322      3.41487869
  H      8.89432675     -2.96077787      2.34892573
  H      7.52484236     -1.29579701      1.16847741
  H      2.71501549     -2.59164262     -3.64380604
  H      5.37365064     -5.21502759      3.28921622
  H      3.99336775     -3.54397002      2.11066465
  P      1.00183643      3.84315120      0.21420730
  C     -0.58383296      4.45483178      0.86822008
  C     -1.04441208      4.11774600      2.14388932
  C     -2.32387189      4.46943443      2.55272581
  C     -3.16812355      5.15497583      1.69074238
  C     -2.72520622      5.49365804      0.41917498
  C     -1.44772237      5.14366734      0.01108015
  H     -4.16853118      5.42463401      2.00795732
  H     -0.39304045      3.59552505      2.83346101
  H     -1.11025556      5.41305941     -0.98339826
  H     -3.37796059      6.02949058     -0.26046525
  C      1.89661404      5.32173710     -0.36728937
  C      3.03374173      5.09802834     -1.14938930
  C      3.81608435      6.15767007     -1.57696622
  C      3.46469468      7.45823237     -1.23836324
  C      2.32977670      7.69220271     -0.47433500
  C      1.54963090      6.63221056     -0.03561931
  H      0.66804940      6.82588205      0.56454179
  H      4.07331647      8.28913038     -1.57493458
  H      2.05069832      8.70625896     -0.21277310
  H      3.30099714      4.08183517     -1.42306295
  H     -2.65428151      4.21173587      3.55197655
  C      1.93653885      3.46621053      1.74146304
  C      2.49440827      2.20320733      1.92061303
  C      3.15648999      1.87641337      3.09445237
  C      3.29999046      2.82429267      4.09658537
  C      2.78062251      4.10025973      3.91663644
  C      2.10177715      4.41990729      2.75140720
  H      3.81871048      2.57034555      5.01361025
  H      2.89880625      4.84836356      4.69179425
  H      1.69389986      5.41638737      2.62311798
  H      4.69590531      5.96958398     -2.18145272
  H      3.56589265      0.88086951      3.21987065
  H      2.41578017      1.46928062      1.12735025
  P      0.76474522     -0.22604094      5.48852756
  C     -0.01342277     -1.61023303      6.37068350
  C      0.56791211     -2.23417446      7.47722454
  C     -0.09655636     -3.26296871      8.12753476
  C     -1.34288676     -3.68256543      7.68216783
  C     -1.92248499     -3.07920992      6.57379495
  C     -1.26044389     -2.05229413      5.92135058
  H     -1.85989424     -4.48548569      8.19424896
  H      1.54309789     -1.91473245      7.82684325
  H     -1.71139875     -1.58398833      5.05235209
  H     -2.88935472     -3.41238882      6.21409516
  C      0.28480137      1.25213789      6.43063862
  C      0.21986344      2.46714472      5.74423209
  C     -0.14158138      3.63233843      6.40018127
  C     -0.45291156      3.59659926      7.75293381
  C     -0.40042455      2.39344639      8.44385128
  C     -0.03444493      1.22659621      7.79051967
  H     -0.00100357      0.29090254      8.33705491
  H     -0.74110044      4.50567946      8.26749101
  H     -0.64766321      2.36193252      9.49859756
  H      0.45632877      2.49274549      4.68571033
  H      0.36113794     -3.73835396      8.98727259
  C      2.54807025     -0.41958312      5.79868990
  C      3.23705039     -1.38332005      5.05581908
  C      4.60658941     -1.53656210      5.19317969
  C      5.31258942     -0.72007596      6.06764093
  C      4.64030489      0.24075656      6.80947978
  C      3.26710481      0.39214306      6.67796186
  H      6.38537821     -0.83432155      6.16922695
  H      5.18589425      0.87796898      7.49570840
  H      2.75096981      1.14432376      7.26325964
  H     -0.18471603      4.56736375      5.85308916
  H      5.12423899     -2.29239034      4.61380863
  H      2.69016643     -2.01762238      4.36453277
  P     -4.32104000      1.92394333     -1.28079211
  C     -5.34306667      0.60121631     -2.00190042
  C     -6.47159129      0.06757605     -1.37897833
  C     -7.18771414     -0.95537328     -1.98404606
  C     -6.78899845     -1.45624496     -3.21526122
  C     -5.66082841     -0.93853360     -3.83863178
  C     -4.93663779      0.07364580     -3.23206140
  H     -7.35447598     -2.25001872     -3.68877174
  H     -6.80046615      0.45840206     -0.42309216
  H     -4.05112988      0.47177083     -3.71692012
  H     -5.34454690     -1.32618075     -4.80030135
  C     -4.34243960      3.19632724     -2.57703932
  C     -3.18564914      3.93663099     -2.82236000
  C     -3.17847214      4.93639872     -3.78209551
  C     -4.32259235      5.19667638     -4.52308007
  C     -5.47434615      4.45326939     -4.30165075
  C     -5.48843731      3.46143830     -3.33411447
  H     -6.39057588      2.88427084     -3.16580111
  H     -4.31471249      5.97512143     -5.27687115
  H     -6.36759792      4.64888243     -4.88327825
  H     -2.28576371      3.71986242     -2.25597096
  H     -8.06599849     -1.35726825     -1.49229862
  C     -5.31438689      2.60106075      0.08155323
  C     -5.37371857      1.86400247      1.26944475
  C     -6.06417089      2.34654347      2.36870259
  C     -6.70020658      3.57955223      2.30117041
  C     -6.64405463      4.32220094      1.12997744
  C     -5.95604697      3.83880374      0.02590719
  H     -7.23602442      3.96173165      3.16189318
  H     -7.13824781      5.28502921      1.07257633
  H     -5.91693927      4.43028323     -0.88142991
  H     -2.27561551      5.50940557     -3.95837464
  H     -6.10182221      1.76132928      3.28022821
  H     -4.87139579      0.90388478      1.32890929

