#B3LYP/6-31+G(d) OPT FREQ

246, Energy =   -372.45108488 au

0 1
 Au     -1.16011775      0.91705393     -2.64079971
 Au      0.33385638     -1.28551829      1.92876476
 Au      2.42635884     -0.75958634     -0.21780652
 Au      1.94690117      1.17041436      1.49290716
 Au     -0.82478716      0.04494052     -0.18030056
 Au      3.15304996     -1.12102137      2.35157545
 Au      1.07473559      1.62209754     -1.33807425
 Au     -2.12856047     -1.87453379      1.37970333
  P     -3.13720334      1.45615089      0.28046272
  C     -4.55391151      0.93168490     -0.75368042
  C     -5.81986376      1.51965946     -0.66518147
  C     -6.84885700      1.10497178     -1.49664706
  C     -6.63537961      0.09519511     -2.42657754
  C     -5.38384312     -0.49947784     -2.52269948
  C     -4.35607146     -0.08540608     -1.68806145
  H     -7.44168205     -0.22904698     -3.07365643
  H     -5.99956592      2.30533119      0.05958222
  H     -3.38497258     -0.56343830     -1.75834468
  H     -5.20924649     -1.29331760     -3.24000795
  C     -2.62329227      2.99960854     -0.56071787
  C     -1.45058759      3.61552321     -0.11031462
  C     -0.97378221      4.76471046     -0.71861601
  C     -1.65440072      5.31584606     -1.79648484
  C     -2.81195939      4.70915917     -2.25965211
  C     -3.29203475      3.55849925     -1.65033212
  H     -4.19725428      3.09750185     -2.02743091
  H     -1.28361756      6.21657956     -2.27146652
  H     -3.34803965      5.13314536     -3.10082718
  H     -0.91137902      3.18829143      0.72859838
  H     -7.82283216      1.57403639     -1.41939842
  C     -3.97496888      2.10329430      1.77931173
  C     -4.76826079      1.20998771      2.50723932
  C     -5.37978876      1.60352352      3.68669665
  C     -5.19081441      2.89156914      4.17045914
  C     -4.39308065      3.78127111      3.46493809
  C     -3.78714685      3.39282337      2.27898361
  H     -5.66413161      3.20016905      5.09499060
  H     -4.24370296      4.78883894      3.83620477
  H     -3.17340150      4.10299312      1.73683333
  H     -0.06993395      5.23255352     -0.34768102
  H     -6.00130312      0.90005998      4.22911315
  H     -4.91224649      0.20194701      2.13416709
  P     -1.90235548      1.37056761     -4.84399409
  C     -0.49008952      2.09018561     -5.73642931
  C     -0.06601239      1.67024844     -6.99795145
  C      1.05564592      2.23815412     -7.58511301
  C      1.76333075      3.23339475     -6.92620162
  C      1.34990364      3.66050448     -5.67087432
  C      0.23725750      3.08743602     -5.07822049
  H      2.63945779      3.67404155     -7.38714497
  H     -0.61634581      0.90039490     -7.52659473
  H     -0.07742917      3.41232681     -4.09134436
  H      1.90087210      4.43500918     -5.14911755
  C     -3.25711923      2.55666799     -5.09989531
  C     -4.53525212      2.17921335     -4.67450095
  C     -5.60082821      3.05787920     -4.77587096
  C     -5.40490164      4.32952544     -5.29986514
  C     -4.14033933      4.71465435     -5.72335124
  C     -3.06964947      3.83739104     -5.62166189
  H     -2.08666419      4.15040271     -5.95395451
  H     -6.23726191      5.01875720     -5.37847855
  H     -3.98348933      5.70385891     -6.13752767
  H     -4.69064090      1.18603878     -4.26701241
  H      1.37621642      1.90107694     -8.56405429
  C     -2.39807644     -0.08014411     -5.81711974
  C     -2.03054540     -1.34818581     -5.36144850
  C     -2.34066292     -2.48031965     -6.09878416
  C     -3.04451465     -2.36132831     -7.28947081
  C     -3.43531924     -1.10759547     -7.74076197
  C     -3.11205872      0.02775386     -7.01425899
  H     -3.29104611     -3.24636091     -7.86410064
  H     -3.99056342     -1.01243012     -8.66657872
  H     -3.41760003      1.00412784     -7.37295700
  H     -6.58525017      2.74915169     -4.44293756
  H     -2.03041570     -3.45701567     -5.74498055
  H     -1.49639597     -1.44258973     -4.42155796
  P      1.31784711      2.77656026      3.15500597
  C      0.09512782      1.97419063      4.23909627
  C      0.27186294      1.82166357      5.61518414
  C     -0.66640879      1.13629312      6.37316559
  C     -1.78927618      0.58748099      5.76945391
  C     -1.96945495      0.72318850      4.39883479
  C     -1.03642182      1.41102209      3.64141792
  H     -2.52421959      0.05804655      6.36425199
  H      1.14605480      2.24177874      6.09845179
  H     -1.18622573      1.51935619      2.57213521
  H     -2.83933198      0.29106411      3.91761835
  C      0.61626823      4.41115847      2.77034534
  C      1.36445818      5.27022534      1.95753545
  C      0.88526577      6.52960508      1.63295521
  C     -0.35724919      6.94160019      2.09942041
  C     -1.11477234      6.08988138      2.89077688
  C     -0.63341316      4.83331223      3.22792320
  H     -1.22948519      4.18013377      3.85474986
  H     -0.73363355      7.92491575      1.84370264
  H     -2.08464321      6.40712025      3.25622904
  H      2.33116153      4.94948456      1.58288447
  H     -0.51764276      1.03067509      7.44150915
  C      2.71527804      3.13338266      4.26280526
  C      3.53941308      2.06444835      4.63164181
  C      4.63639811      2.26500454      5.45239245
  C      4.93379083      3.54099761      5.91384766
  C      4.12653461      4.60991493      5.55267967
  C      3.02465317      4.41062646      4.73408477
  H      5.79487370      3.69974543      6.55211105
  H      4.35336548      5.60757007      5.91012382
  H      2.40147767      5.25428516      4.46178673
  H      1.48267881      7.18875836      1.01326752
  H      5.26146283      1.42394321      5.73006882
  H      3.31318526      1.06539758      4.27103661
  P      3.13271898      2.80631373     -1.71100007
  C      3.13394905      4.61926564     -1.57470966
  C      4.17647360      5.36372149     -1.01742349
  C      4.09210924      6.74669505     -0.95340831
  C      2.97743705      7.40526890     -1.45400454
  C      1.94357028      6.67597522     -2.02743782
  C      2.01907996      5.29361362     -2.08138651
  H      2.91718307      8.48599017     -1.40479458
  H      5.05966659      4.86406669     -0.63731448
  H      1.20849223      4.72357792     -2.52312384
  H      1.07605857      7.18527873     -2.43109333
  C      3.79631938      2.49282948     -3.37529666
  C      3.45250832      1.30037036     -4.01628484
  C      3.93664997      1.01325178     -5.28213470
  C      4.76530192      1.91967282     -5.92942643
  C      5.10857194      3.11163927     -5.30470792
  C      4.62951587      3.39926753     -4.03615682
  H      4.90210818      4.33236002     -3.55637519
  H      5.14078163      1.69871063     -6.92156126
  H      5.75271863      3.82291947     -5.80818887
  H      2.79591465      0.59686691     -3.51568999
  H      4.90582772      7.31222234     -0.51447707
  C      4.45619350      2.22830782     -0.60151932
  C      4.50591334      2.68370454      0.72104129
  C      5.41033461      2.14368937      1.62373978
  C      6.27150199      1.13046423      1.22515927
  C      6.23003737      0.66842802     -0.08318394
  C      5.32640908      1.20654011     -0.98814633
  H      6.97502841      0.70557474      1.93126546
  H      6.90797147     -0.11415174     -0.40374550
  H      5.30253418      0.83386334     -2.00576621
  H      3.65976109      0.08376576     -5.76643320
  H      5.43640436      2.51341101      2.64216992
  H      3.84320419      3.47858935      1.04196377
  P      3.46967615     -2.56483297      4.20355148
  C      4.11223342     -1.86581112      5.75267923
  C      3.34126405     -1.69484674      6.90334754
  C      3.88924442     -1.09875619      8.02961246
  C      5.20807411     -0.66788823      8.02259940
  C      5.98359314     -0.83024554      6.88065124
  C      5.43820704     -1.41757468      5.75044574
  H      5.63357377     -0.20568088      8.90540672
  H      2.31241313     -2.03499554      6.92439962
  H      6.04337527     -1.53852437      4.85773843
  H      7.01604162     -0.50077646      6.87151696
  C      4.46366697     -4.05296146      3.90779188
  C      4.66010991     -4.47227422      2.58952902
  C      5.38644245     -5.62017802      2.31762360
  C      5.93628948     -6.35693195      3.35792669
  C      5.75656429     -5.94313689      4.67116936
  C      5.02412550     -4.79973668      4.94848003
  H      4.88627521     -4.48113870      5.97546329
  H      6.50858476     -7.25202173      3.14451106
  H      6.18813869     -6.51417587      5.48487531
  H      4.24073259     -3.88964729      1.77497061
  H      3.28138454     -0.97502823      8.91840282
  C      1.80352346     -3.18387056      4.59005841
  C      0.78467274     -2.24585835      4.80037559
  C     -0.52227968     -2.65956786      5.00897331
  C     -0.83446525     -4.01283175      5.00273708
  C      0.16734347     -4.94914272      4.79091062
  C      1.47699158     -4.53943404      4.58217175
  H     -1.85653418     -4.33477570      5.16434798
  H     -0.06799284     -6.00718826      4.78964280
  H      2.24913132     -5.28104768      4.41394181
  H      5.52766948     -5.93646131      1.29045775
  H     -1.29711636     -1.92107565      5.17678011
  H      1.02354241     -1.18817678      4.82164007
  P      2.51716992     -2.64486206     -1.68837885
  C      4.03822583     -3.61449166     -1.46298718
  C      4.07824200     -5.00592123     -1.59323232
  C      5.27290790     -5.68949208     -1.42628373
  C      6.43949313     -4.99719598     -1.12511002
  C      6.40805129     -3.61632335     -0.98234022
  C      5.21518780     -2.93119252     -1.14914224
  H      7.37209873     -5.53458584     -1.00035073
  H      3.17062849     -5.55344177     -1.82097828
  H      5.18854713     -1.85263333     -1.03522973
  H      7.31364365     -3.07186823     -0.74044532
  C      2.31767005     -2.51972530     -3.49641558
  C      1.43808174     -1.55747630     -4.00048350
  C      1.29527772     -1.37478346     -5.36666926
  C      2.02414676     -2.15724766     -6.25290319
  C      2.89608101     -3.12059617     -5.76435727
  C      3.04858491     -3.29726059     -4.39753982
  H      3.74237877     -4.04431610     -4.02965657
  H      1.91303469     -2.01305496     -7.32109501
  H      3.46792900     -3.73439626     -6.45068322
  H      0.86236552     -0.94554673     -3.31323265
  H      5.29390588     -6.76754298     -1.53575835
  C      1.22185299     -3.80134644     -1.14310067
  C      1.23728804     -4.18695276      0.20186440
  C      0.26416208     -5.03099025      0.70889481
  C     -0.74505471     -5.50180314     -0.12263309
  C     -0.77518470     -5.11907346     -1.45591843
  C      0.19666783     -4.26833332     -1.96484894
  H     -1.50590979     -6.16671488      0.26892468
  H     -1.55908589     -5.48783991     -2.10719248
  H      0.16147385     -3.97336533     -3.00752760
  H      0.62039387     -0.61364643     -5.74088057
  H      0.29791127     -5.32430840      1.75225627
  H      2.02953748     -3.82893841      0.85110136
  P     -4.21609427     -3.00919883      1.18477933
  C     -4.54184057     -3.46376214     -0.54785438
  C     -5.75845090     -3.99144896     -0.98927337
  C     -5.93752961     -4.32623808     -2.32232183
  C     -4.90590971     -4.14540731     -3.23445302
  C     -3.68931024     -3.63257290     -2.80518774
  C     -3.51046283     -3.29469963     -1.47285497
  H     -5.04813431     -4.40610854     -4.27665424
  H     -6.57136802     -4.13971462     -0.28786384
  H     -2.55789314     -2.89519998     -1.14120425
  H     -2.87760351     -3.49135062     -3.50884549
  C     -5.75858844     -2.24545254      1.77143553
  C     -6.04638370     -2.26222536      3.14071451
  C     -7.17020914     -1.61711796      3.63203921
  C     -8.01641992     -0.93381376      2.76751245
  C     -7.73196301     -0.89749044      1.40965253
  C     -6.60998070     -1.54390463      0.91391544
  H     -6.39687397     -1.50893557     -0.14800938
  H     -8.89523132     -0.43053060      3.15276647
  H     -8.38485725     -0.36251678      0.72940000
  H     -5.38801013     -2.79157520      3.82125825
  H     -6.88773410     -4.73079330     -2.65094209
  C     -4.20122138     -4.62300902      2.02768459
  C     -2.97979152     -5.13191901      2.47137856
  C     -2.90799190     -6.38076387      3.06943526
  C     -4.06066397     -7.13393191      3.24282276
  C     -5.28412391     -6.63191355      2.81905150
  C     -5.35657959     -5.38750734      2.21378771
  H     -4.00655460     -8.10940221      3.71153014
  H     -6.18772763     -7.21373014      2.95888012
  H     -6.31735568     -5.00456931      1.88902568
  H     -7.38817542     -1.65042555      4.69322625
  H     -1.95035634     -6.76600805      3.40079709
  H     -2.08156599     -4.53599841      2.34906780

