#B3LYP/6-31+G(d) OPT FREQ

246, Energy =   -372.44075748 au

0 1
 Au     -0.74146426      1.62625401     -0.05178700
 Au     -1.17823853     -0.86055567      0.93836475
 Au     -0.77039390      2.53118201     -2.70762072
 Au      1.54616570     -1.38497088     -0.26940127
 Au     -1.52406084      1.38256648      2.44590470
 Au      2.08468924     -1.60979777     -2.91412294
 Au      1.02894822      0.57149393     -1.94940000
 Au      1.20621873      3.28493012     -1.18409780
  P      3.23295053      3.93705768     -0.09159823
  C      3.81004096      5.63336030     -0.37462459
  C      3.78452222      6.61801291      0.61569434
  C      4.14809872      7.92247050      0.31584049
  C      4.53290182      8.26276568     -0.97320847
  C      4.54506959      7.29538208     -1.96993522
  C      4.17738274      5.99253094     -1.67693797
  H      4.81806272      9.28243250     -1.20351024
  H      3.48516972      6.36387556      1.62617265
  H      4.17370169      5.24234769     -2.46109656
  H      4.83729973      7.55766599     -2.98012452
  C      4.63685596      2.85873682     -0.53384855
  C      4.38981321      1.48413180     -0.55532043
  C      5.40021835      0.58279062     -0.84190946
  C      6.67966450      1.04469027     -1.12115499
  C      6.93781903      2.40812769     -1.10637110
  C      5.92683105      3.31184233     -0.81127018
  H      6.14408599      4.37352019     -0.79777858
  H      7.47281670      0.34207141     -1.34898034
  H      7.93492980      2.77357442     -1.32269920
  H      3.39194216      1.11884889     -0.33512240
  H      4.12925463      8.67579196      1.09487893
  C      3.21621914      3.73128516      1.71863407
  C      2.04942129      3.30979882      2.35387325
  C      2.01782648      3.13064468      3.72760499
  C      3.15711888      3.35394646      4.48624800
  C      4.33069364      3.76125147      3.86406826
  C      4.36219266      3.94973254      2.49089552
  H      3.13187877      3.20719524      5.55971942
  H      5.22491575      3.93550183      4.45102543
  H      5.28165317      4.26696441      2.01134322
  H      5.18721344     -0.48060003     -0.84070287
  H      1.09945577      2.81195022      4.20556218
  H      1.15910054      3.12010350      1.76480847
  P     -2.15141430     -3.06051057      0.77078048
  C     -1.36602078     -4.31827640     -0.29001950
  C     -1.55613371     -5.69383038     -0.12338020
  C     -0.88780305     -6.59983976     -0.93252354
  C     -0.01949149     -6.15081699     -1.91773392
  C      0.16106923     -4.78849546     -2.10626240
  C     -0.51377851     -3.88318789     -1.30437087
  H      0.51327027     -6.85979852     -2.54049508
  H     -2.22341666     -6.06016864      0.64780125
  H     -0.38643306     -2.82020089     -1.47118229
  H      0.83152812     -4.42685567     -2.87681479
  C     -3.83806700     -2.87947746      0.10949343
  C     -4.52912254     -1.69727050      0.38731558
  C     -5.82942087     -1.51677460     -0.05653863
  C     -6.45325425     -2.50954413     -0.79955137
  C     -5.77301542     -3.68458814     -1.09125717
  C     -4.47578817     -3.87245573     -0.63725822
  H     -3.95611016     -4.79566740     -0.86697631
  H     -7.46804699     -2.36747482     -1.15195083
  H     -6.25589636     -4.46315861     -1.67023825
  H     -4.04022485     -0.91340710      0.95648938
  H     -1.04251845     -7.66270637     -0.78783764
  C     -2.43314830     -3.97185994      2.32546308
  C     -1.43023568     -4.80090051      2.83809588
  C     -1.61292932     -5.47842667      4.03307869
  C     -2.79866880     -5.33418840      4.74003102
  C     -3.79541013     -4.50347381      4.24761997
  C     -3.61327045     -3.81890598      3.05616356
  H     -2.94583694     -5.86816282      5.67126702
  H     -4.72478675     -4.38961696      4.79299700
  H     -4.39923396     -3.17009367      2.68609597
  H     -6.35457434     -0.59754783      0.17636581
  H     -0.82493606     -6.11907627      4.41191450
  H     -0.49939587     -4.91860029      2.29434873
  P      3.07012982     -2.88538067     -4.64938688
  C      4.80048425     -3.30725648     -4.28551114
  C      5.50037894     -4.33094876     -4.93004510
  C      6.82021333     -4.59408947     -4.59714426
  C      7.46010548     -3.84321229     -3.62019015
  C      6.77605105     -2.82157475     -2.97526415
  C      5.45696517     -2.55752853     -3.30642664
  H      8.49063968     -4.05487583     -3.36059245
  H      5.01031596     -4.92871163     -5.68991371
  H      4.92079891     -1.76027139     -2.80157677
  H      7.26911709     -2.23127717     -2.21106217
  C      3.14139070     -1.91139236     -6.18480771
  C      2.56883721     -0.63851012     -6.20564998
  C      2.58796202      0.12944625     -7.35920885
  C      3.18702887     -0.36418414     -8.50920309
  C      3.76740483     -1.62624073     -8.50007268
  C      3.74533968     -2.39656215     -7.34880795
  H      4.19786509     -3.38182410     -7.35211517
  H      3.20295134      0.23418661     -9.41257463
  H      4.23835163     -2.01410310     -9.39589425
  H      2.10344778     -0.24867740     -5.30629616
  H      7.35116856     -5.39181917     -5.10337595
  C      2.31283062     -4.45530134     -5.16830985
  C      2.58788818     -5.63386314     -4.46710176
  C      1.95921877     -6.82113021     -4.80972322
  C      1.02815415     -6.84468720     -5.84014717
  C      0.73230241     -5.67692935     -6.52951801
  C      1.36824321     -4.49025900     -6.19805470
  H      0.53610484     -7.77273541     -6.10602935
  H      0.00663128     -5.68938824     -7.33447984
  H      1.14210618     -3.58678850     -6.75333574
  H      2.13298314      1.11396889     -7.35909052
  H      2.20264701     -7.73166836     -4.27417746
  H      3.30684706     -5.62189975     -3.65530117
  P      2.50365247     -2.63103338      1.50153906
  C      4.06144234     -1.79375932      1.93209383
  C      5.29368550     -2.43902451      2.04427773
  C      6.42972557     -1.72240040      2.39169576
  C      6.34968369     -0.35951998      2.64073152
  C      5.12759872      0.29167836      2.53628529
  C      3.99291522     -0.41883961      2.17926570
  H      7.23892660      0.19685148      2.91268922
  H      5.36831958     -3.50361381      1.85484782
  H      3.04193219      0.09552210      2.08082555
  H      5.05941657      1.35718976      2.72367069
  C      2.99079009     -4.22055954      0.77693136
  C      2.40497236     -5.42950491      1.15527643
  C      2.70045452     -6.59879501      0.46996230
  C      3.58602827     -6.57838111     -0.59823747
  C      4.17247719     -5.38003598     -0.98663527
  C      3.86599596     -4.20851466     -0.31507476
  H      4.31076156     -3.27214027     -0.63614375
  H      3.81898400     -7.49368729     -1.12939591
  H      4.87094517     -5.35708403     -1.81540886
  H      1.71533582     -5.45702005      1.99145681
  H      7.38184841     -2.23421000      2.47023694
  C      1.83923586     -3.02704599      3.15594240
  C      0.56984919     -2.59252157      3.52916864
  C      0.07912176     -2.83710684      4.80297927
  C      0.85781180     -3.52046664      5.72455310
  C      2.12651115     -3.95972325      5.36584409
  C      2.61743203     -3.71453042      4.09398963
  H      0.47814920     -3.71014549      6.72159150
  H      2.73857356     -4.49380471      6.08320190
  H      3.61163312     -4.05356548      3.82495459
  H      2.23578715     -7.52975305      0.77360159
  H     -0.91315909     -2.49292292      5.07132165
  H     -0.04315156     -2.05633407      2.81290884
  P     -3.12370272      3.38606828      1.81874057
  C     -4.54810787      2.97475665      0.74449408
  C     -5.81572224      3.54011205      0.90339557
  C     -6.86193499      3.17470127      0.06957879
  C     -6.66361811      2.23897708     -0.93547679
  C     -5.40992151      1.66436737     -1.10057269
  C     -4.36628817      2.02481922     -0.26490212
  H     -7.48029172      1.95682948     -1.58943687
  H     -5.98659207      4.27481773      1.68126864
  H     -3.39221889      1.56620804     -0.39982810
  H     -5.24452005      0.93285350     -1.88319927
  C     -2.16113923      4.54165327      0.77888592
  C     -0.93392142      4.99161348      1.27724764
  C     -0.09327637      5.77175606      0.49889053
  C     -0.46016641      6.10670320     -0.80038269
  C     -1.68355170      5.67828150     -1.30140491
  C     -2.52829238      4.90572724     -0.51771284
  H     -3.48026809      4.58066457     -0.91978696
  H      0.19774506      6.71298823     -1.41115686
  H     -1.98507514      5.95199339     -2.30576884
  H     -0.63732928      4.72246322      2.28535132
  H     -7.83734156      3.62708314      0.20571291
  C     -3.87309372      4.45900806      3.09320265
  C     -4.63872420      3.83611470      4.08564357
  C     -5.22682810      4.58132263      5.09384931
  C     -5.04604128      5.95809704      5.13525932
  C     -4.27527466      6.58354600      4.16553308
  C     -3.69109557      5.84171036      3.14929953
  H     -5.50256664      6.54133232      5.92614423
  H     -4.12885244      7.65700984      4.19608991
  H     -3.09509572      6.34166862      2.39464632
  H      0.85008970      6.12005044      0.90383381
  H     -5.82100472      4.08645932      5.85333056
  H     -4.77206245      2.75898663      4.06177722
  P     -1.50007523      1.12817101      4.83295297
  C      0.07716941      0.65885741      5.62435519
  C      0.29618272      0.78577805      6.99940481
  C      1.51716214      0.43254911      7.55260224
  C      2.54233717     -0.03950599      6.74356765
  C      2.34407995     -0.15170736      5.37486358
  C      1.12168204      0.19618943      4.82108099
  H      3.49727443     -0.31088726      7.17797962
  H     -0.48744645      1.17684452      7.63840586
  H      0.97419409      0.11483000      3.74930099
  H      3.14320193     -0.50791356      4.73430583
  C     -2.71040737     -0.12400514      5.36130241
  C     -3.88238939     -0.21803411      4.60504592
  C     -4.88973911     -1.09813935      4.96388645
  C     -4.73388617     -1.91060706      6.07990937
  C     -3.56018187     -1.85260566      6.81859214
  C     -2.55383115     -0.96540267      6.46496109
  H     -1.64707248     -0.92149189      7.05714613
  H     -5.52698797     -2.58826701      6.37310386
  H     -3.42889722     -2.49521299      7.68146995
  H     -4.00253020      0.41319149      3.73014369
  H      1.67068940      0.53304503      8.62072255
  C     -1.97283260      2.60322465      5.79596653
  C     -1.49735705      3.84333091      5.36198139
  C     -1.78024166      4.99839838      6.07219524
  C     -2.55382722      4.93185217      7.22351229
  C     -3.04624774      3.70814342      7.65544351
  C     -2.75922382      2.54960654      6.94889210
  H     -2.77889422      5.83463808      7.77885612
  H     -3.65714378      3.65286153      8.54895706
  H     -3.15286773      1.60017828      7.29316642
  H     -5.79834636     -1.14817113      4.37489268
  H     -1.40343429      5.95245480      5.72197696
  H     -0.90506131      3.90093805      4.45433900
  P     -2.16884806      1.63584642     -4.43401580
  C     -2.25424424     -0.17593369     -4.26518953
  C     -3.34965051     -0.82367527     -3.69308121
  C     -3.34135145     -2.19878560     -3.51301304
  C     -2.23462086     -2.94707947     -3.88653497
  C     -1.12978050     -2.31133678     -4.43863901
  C     -1.13725467     -0.93861673     -4.62218994
  H     -2.23176283     -4.02205351     -3.75010983
  H     -4.22210784     -0.25162883     -3.39821023
  H     -0.27404717     -0.45238980     -5.06347037
  H     -0.26281579     -2.88918241     -4.73863272
  C     -1.45571621      1.84164801     -6.09646205
  C     -0.56087013      2.89341691     -6.30435363
  C      0.02661236      3.08805410     -7.54479932
  C     -0.27213813      2.23080042     -8.59543532
  C     -1.15937342      1.18014213     -8.40037103
  C     -1.74813173      0.98418674     -7.16146009
  H     -2.43212439      0.15541348     -7.01828381
  H      0.18648903      2.38058425     -9.56574335
  H     -1.39337908      0.50773404     -9.21762804
  H     -0.32182847      3.55984856     -5.48190247
  H     -4.20657855     -2.68847965     -3.08147311
  C     -3.89870155      2.18079252     -4.57278651
  C     -4.31294382      3.25303910     -3.78025519
  C     -5.61689486      3.71895173     -3.84468936
  C     -6.52437165      3.11699968     -4.70491570
  C     -6.12309006      2.05139237     -5.50092070
  C     -4.82007351      1.58456529     -5.43922061
  H     -7.54462421      3.47840211     -4.75705667
  H     -6.82956125      1.58175169     -6.17543271
  H     -4.51601690      0.75351867     -6.06542599
  H      0.71875373      3.90914737     -7.69085017
  H     -5.92383282      4.54973988     -3.21984530
  H     -3.60326613      3.71935643     -3.10507460

