246
Energy =   -372.45532924 au
 Au      0.27017909      0.00157022     -3.41175074
 Au     -0.64275034      1.64771937     -0.90960388
 Au     -2.19713003      0.58636980     -3.12019137
 Au      3.60916111     -0.33031345      0.85329590
 Au      1.97436758      0.07942003     -1.19972968
 Au     -0.96830087     -0.95976668     -0.81894019
 Au     -1.82348876      0.55174826      1.37377856
 Au      1.03514787      0.46618672      1.26709400
  P      0.11009792      3.90807262     -1.13135768
  C      1.01107393      4.32887013     -2.65930650
  C      2.10589929      5.19631411     -2.68437061
  C      2.76206932      5.46186234     -3.87723824
  C      2.33809558      4.86724980     -5.05816345
  C      1.24645196      4.00864980     -5.04641024
  C      0.58812807      3.74481980     -3.85561331
  H      2.85702254      5.07308738     -5.98685092
  H      2.45074850      5.66105279     -1.76792938
  H     -0.26492827      3.07416319     -3.85045160
  H      0.90735656      3.54230291     -5.96429152
  C      1.32847126      4.20935229      0.18487757
  C      1.02512709      4.92848809      1.34220509
  C      1.93686502      4.99827525      2.38720733
  C      3.15773175      4.34535477      2.29616646
  C      3.46966434      3.62455192      1.15039779
  C      2.56173643      3.55359939      0.10735322
  H      2.81121209      2.98637906     -0.78325519
  H      3.86531955      4.39504608      3.11542094
  H      4.42256903      3.11381194      1.06840870
  H      0.07469341      5.44362871      1.42400916
  H      3.60920240      6.13787522     -3.88307617
  C     -1.12605033      5.22759308     -0.95140402
  C     -2.46459004      4.87076937     -0.77882562
  C     -3.44006373      5.84639305     -0.64365455
  C     -3.09058796      7.18898350     -0.67988813
  C     -1.76230151      7.55473770     -0.85713178
  C     -0.78471740      6.58291780     -0.99585679
  H     -3.85388819      7.95090617     -0.57421528
  H     -1.48697717      8.60239804     -0.89060426
  H      0.24957947      6.87413066     -1.14164837
  H      1.68800753      5.56345910      3.27794645
  H     -4.47653975      5.55511327     -0.51868598
  H     -2.74028987      3.82126919     -0.75319885
  P      5.66182568     -1.23882630      1.62074081
  C      6.82725810     -0.01837517      2.29235824
  C      7.69114567     -0.28233361      3.35732659
  C      8.54532477      0.70510625      3.82476554
  C      8.54857489      1.96351625      3.23833195
  C      7.69047210      2.23796684      2.18073414
  C      6.83286592      1.25460975      1.71450875
  H      9.21729583      2.73234350      3.60690955
  H      7.69249238     -1.26175016      3.82198485
  H      6.15498715      1.46908324      0.89424833
  H      7.68610498      3.21981990      1.72156286
  C      6.59788726     -2.09838276      0.31950383
  C      5.89229546     -2.96594185     -0.52077476
  C      6.53654312     -3.61934870     -1.55856375
  C      7.89068597     -3.40517761     -1.78215927
  C      8.59782664     -2.53874646     -0.96098140
  C      7.95810999     -1.88795299      0.08404339
  H      8.51884713     -1.21382155      0.72108396
  H      8.39200840     -3.91207760     -2.59820171
  H      9.65397757     -2.36677024     -1.13282176
  H      4.83100260     -3.12606704     -0.35648257
  H      9.21190415      0.48986430      4.65174504
  C      5.47251680     -2.48387950      2.93265203
  C      4.44736848     -2.30323782      3.86658069
  C      4.24172687     -3.23055180      4.87500577
  C      5.05063011     -4.35644860      4.95973413
  C      6.06858632     -4.54788189      4.03552458
  C      6.28032676     -3.61960138      3.02736475
  H      4.88639973     -5.08420094      5.74571733
  H      6.70191685     -5.42517548      4.09841648
  H      7.07392648     -3.77863360      2.30626528
  H      5.97900217     -4.29370354     -2.19856455
  H      3.44326869     -3.07733338      5.59228946
  H      3.80741632     -1.42909161      3.79747433
  P      2.56743006     -0.53594414     -3.99769054
  C      3.93603432      0.40513305     -3.24414879
  C      5.02987577     -0.18983364     -2.61158097
  C      6.00088694      0.59587593     -2.00722203
  C      5.89453731      1.97964457     -2.02382520
  C      4.81068013      2.58195970     -2.65086446
  C      3.83626449      1.80166663     -3.25099887
  H      6.65693992      2.58896258     -1.55295129
  H      5.12375882     -1.26928708     -2.59299563
  H      2.98896631      2.27059296     -3.73904813
  H      4.72370561      3.66222364     -2.67455766
  C      2.76104017     -0.20537413     -5.77765233
  C      1.67797169     -0.48571455     -6.61559884
  C      1.76359093     -0.25418184     -7.97850683
  C      2.93051439      0.26735217     -8.52176847
  C      4.01023688      0.55432871     -7.69776038
  C      3.92979021      0.32046005     -6.33345497
  H      4.77702033      0.54872472     -5.69695664
  H      2.99712878      0.45244502     -9.58735927
  H      4.92233765      0.96186377     -8.11814432
  H      0.76496156     -0.88887999     -6.18987975
  H      6.84777908      0.12162169     -1.52445042
  C      3.05919376     -2.27771322     -3.80575689
  C      2.68105129     -2.95268991     -2.64418351
  C      3.03392761     -4.27593573     -2.44062707
  C      3.75336068     -4.95656029     -3.41493360
  C      4.12062569     -4.30266304     -4.58398812
  C      3.78130497     -2.97261672     -4.77945658
  H      4.01771990     -5.99687221     -3.26684241
  H      4.67737409     -4.83142821     -5.34886743
  H      4.07743969     -2.47122479     -5.69359571
  H      0.91674859     -0.47703411     -8.61721917
  H      2.73874817     -4.77760202     -1.52622695
  H      2.09815693     -2.42974079     -1.89413202
  P     -1.04360420     -3.35178195     -0.78922092
  C      0.16559646     -4.11905951      0.33955621
  C     -0.00445179     -5.39638230      0.88290087
  C      0.95765414     -5.93643379      1.72387306
  C      2.10255114     -5.21499283      2.03689858
  C      2.27863134     -3.94426042      1.50853669
  C      1.31580500     -3.40367097      0.67212697
  H      2.85150282     -5.63788517      2.69640256
  H     -0.89725147     -5.96682489      0.65424538
  H      1.45277472     -2.40524263      0.27593087
  H      3.16108019     -3.36494017      1.75398229
  C     -0.70582772     -4.13099062     -2.40112824
  C     -1.09987025     -3.44710324     -3.55407084
  C     -0.82118801     -3.95372740     -4.81281507
  C     -0.14088094     -5.15729980     -4.93879220
  C      0.24561614     -5.85327063     -3.80161812
  C     -0.03328752     -5.34693538     -2.54112563
  H      0.27978940     -5.89880250     -1.66223812
  H      0.08733893     -5.55215949     -5.92170673
  H      0.77408227     -6.79497736     -3.89455328
  H     -1.62886453     -2.50524358     -3.45943434
  H      0.81141073     -6.92766742      2.13697064
  C     -2.61226181     -4.08288186     -0.22923546
  C     -2.97258245     -3.90764440      1.11141514
  C     -4.15917325     -4.43054577      1.59615235
  C     -5.01296352     -5.11972685      0.74360467
  C     -4.67883737     -5.27365471     -0.59461954
  C     -3.48674015     -4.75750783     -1.08186844
  H     -5.94102937     -5.53091726      1.12251700
  H     -5.34692335     -5.80292092     -1.26417938
  H     -3.22962184     -4.88863848     -2.12683180
  H     -1.13154031     -3.40503261     -5.69464035
  H     -4.42136157     -4.29558762      2.63934989
  H     -2.30914342     -3.36437504      1.77719145
  P     -3.91191327      0.35469060      2.58186576
  C     -4.83185899      1.92467866      2.65048672
  C     -6.15643048      2.03765133      3.08489156
  C     -6.77335734      3.27862278      3.14250525
  C     -6.08442575      4.42262965      2.76024186
  C     -4.77770983      4.32008661      2.30377904
  C     -4.16111984      3.08035632      2.24511181
  H     -6.56776970      5.39103241      2.81262957
  H     -6.71331344      1.15302475      3.37038280
  H     -3.14127413      3.00151364      1.88361790
  H     -4.23528861      5.20642263      1.99475183
  C     -3.88344260     -0.29222831      4.28512296
  C     -3.08992891     -1.42357909      4.50038153
  C     -2.98229762     -1.98447846      5.76174569
  C     -3.66545372     -1.42072834      6.83178406
  C     -4.45024535     -0.29384828      6.63208764
  C     -4.55583061      0.27250744      5.36924975
  H     -5.15913853      1.16222202      5.23314407
  H     -3.58237619     -1.85755576      7.81987769
  H     -4.98401125      0.15105662      7.46381690
  H     -2.54891969     -1.86076954      3.66691811
  H     -7.79809879      3.35164031      3.48764981
  C     -5.06286451     -0.79346011      1.75417340
  C     -4.82485257     -1.12763303      0.41940433
  C     -5.68602170     -1.97037620     -0.26533682
  C     -6.80678630     -2.48442135      0.37172271
  C     -7.04449026     -2.17614484      1.70443604
  C     -6.17497151     -1.34595312      2.39521489
  H     -7.48511467     -3.13548217     -0.16708077
  H     -7.90862838     -2.58894714      2.21183739
  H     -6.35767950     -1.13252801      3.44222875
  H     -2.36096477     -2.86043775      5.91049744
  H     -5.47400333     -2.23424893     -1.29439325
  H     -3.94839218     -0.73157482     -0.08235807
  P     -4.51763066      1.12387108     -3.41071090
  C     -5.54350202     -0.37200651     -3.54152621
  C     -6.93624767     -0.37330298     -3.42015933
  C     -7.65039259     -1.55563498     -3.54238623
  C     -6.98959053     -2.75199405     -3.78733178
  C     -5.60597235     -2.76465343     -3.90913166
  C     -4.89125320     -1.58343799     -3.78520612
  H     -7.55123994     -3.67396525     -3.88138184
  H     -7.46333345      0.55272757     -3.22139832
  H     -3.80964966     -1.59521841     -3.87413833
  H     -5.08218927     -3.69482826     -4.09831959
  C     -4.66703856      1.91962230     -5.04105545
  C     -3.61644338      2.74104516     -5.45989737
  C     -3.66856715      3.38788470     -6.68418558
  C     -4.77061713      3.21710613     -7.51109314
  C     -5.81713248      2.39820442     -7.10874346
  C     -5.76901559      1.75357935     -5.88247411
  H     -6.59096400      1.11487910     -5.57963991
  H     -4.81208993      3.71926777     -8.47048598
  H     -6.67735616      2.26000507     -7.75347045
  H     -2.75118700      2.86882108     -4.81674360
  H     -8.72988104     -1.54197742     -3.44608378
  C     -5.49008354      2.23128861     -2.33408975
  C     -6.04521613      1.73431856     -1.15134503
  C     -6.78248919      2.55806577     -0.31732091
  C     -6.96249047      3.89656521     -0.63948361
  C     -6.39684409      4.40722230     -1.80013718
  C     -5.66117611      3.58328853     -2.63950356
  H     -7.54463102      4.53859564      0.01118413
  H     -6.54288145      5.44833350     -2.06433101
  H     -5.23123586      3.99163569     -3.54706460
  H     -2.84627746      4.02278216     -6.99393762
  H     -7.22296497      2.15082934      0.58546820
  H     -5.91317434      0.68998440     -0.89233663
  P      0.96536834      0.67739626      3.67030341
  C     -0.41895034      1.67085951      4.31810340
  C     -1.14136124      1.34675523      5.46733129
  C     -2.11379112      2.21175824      5.94788257
  C     -2.37957015      3.40440173      5.29031684
  C     -1.67271699      3.73162552      4.14048715
  C     -0.70385560      2.86812709      3.65534701
  H     -3.13689893      4.07860976      5.67240352
  H     -0.94720155      0.41501812      5.98634652
  H     -0.14761370      3.12673747      2.76068073
  H     -1.87164019      4.66375485      3.62432775
  C      2.37723841      1.41943427      4.56218029
  C      3.63920539      1.42486998      3.96858024
  C      4.73045125      1.98067248      4.61655916
  C      4.57547119      2.54652109      5.87426870
  C      3.32376523      2.55762938      6.47421095
  C      2.23167272      2.00365313      5.82491965
  H      1.25802208      2.03496126      6.30012243
  H      5.42707251      2.98432009      6.38132353
  H      3.19358957      3.00403855      7.45314034
  H      3.76599033      0.99756528      2.97894717
  H     -2.66311125      1.95217773      6.84519756
  C      0.75585549     -0.96522648      4.42532683
  C      0.21524249     -1.98208903      3.63501939
  C      0.02012709     -3.25453043      4.14783472
  C      0.36785326     -3.53197882      5.46316428
  C      0.91711734     -2.53313705      6.25713624
  C      1.11374750     -1.25950478      5.74377611
  H      0.21995298     -4.52697337      5.86582853
  H      1.19206131     -2.74547210      7.28367132
  H      1.55567839     -0.49287575      6.36965914
  H      5.70115669      1.97778036      4.13563489
  H     -0.39873843     -4.03158451      3.51866002
  H     -0.04674518     -1.77196944      2.60364775
