246
Energy =   -372.44777200 au
 Au      1.60151219     -0.04800351      1.82184009
 Au     -1.87403800     -1.38034961     -2.00692524
 Au     -0.59688148      1.02676001     -1.36049134
 Au      0.74262303     -1.27166601     -2.40725472
 Au     -0.25154202     -1.22799655      0.25573461
 Au     -0.57095127      2.00888165      1.14252347
 Au     -0.30997340      3.58862170     -1.00278171
 Au      0.51064585     -2.34857430      2.51944275
  P     -0.25562558      5.95706104     -1.11449346
  C     -1.35428829      6.68808859      0.13672048
  C     -1.20932772      7.99527933      0.61016804
  C     -2.07905031      8.49432804      1.56835022
  C     -3.10206412      7.69903584      2.06853663
  C     -3.25235350      6.39709241      1.61051781
  C     -2.38273756      5.89685386      0.65418419
  H     -3.77828956      8.09232206      2.81835300
  H     -0.40743169      8.61978863      0.23340320
  H     -2.49589896      4.87697960      0.30262629
  H     -4.04264942      5.76693173      2.00284993
  C     -0.84538130      6.60516514     -2.70618846
  C     -0.57176632      5.84616030     -3.84832717
  C     -1.01003656      6.26333972     -5.09467709
  C     -1.73650289      7.44066872     -5.21478896
  C     -2.01905606      8.19870639     -4.08660618
  C     -1.57792368      7.78650654     -2.83848920
  H     -1.80710469      8.38312629     -1.96288705
  H     -2.08600124      7.76496631     -6.18786402
  H     -2.58813565      9.11656634     -4.17780297
  H     -0.01193837      4.92127102     -3.75042431
  H     -1.95710029      9.51004289      1.92613445
  C      1.33372721      6.78868662     -0.81569615
  C      1.87751667      6.72151842      0.47147626
  C      3.11960787      7.27034265      0.74214842
  C      3.84296299      7.88500354     -0.27290338
  C      3.31765251      7.94631289     -1.55664704
  C      2.07235191      7.39882220     -1.83020021
  H      4.81424264      8.31654304     -0.06204868
  H      3.87890861      8.42563901     -2.35029293
  H      1.66924537      7.45214399     -2.83512816
  H     -0.78901669      5.66632357     -5.97196085
  H      3.52485302      7.21768492      1.74635279
  H      1.31296009      6.24183225      1.26440091
  P      3.40665861      1.50171099      1.70041074
  C      3.59316087      2.79256172      2.96622914
  C      4.44491363      2.62024739      4.06093328
  C      4.52978964      3.59195810      5.04628651
  C      3.76801553      4.74824776      4.95366375
  C      2.90435928      4.92106356      3.88053663
  C      2.80239565      3.94464352      2.90310282
  H      3.84291969      5.51281404      5.71777653
  H      5.05049431      1.72425897      4.13681132
  H      2.11051139      4.07724832      2.07751400
  H      2.30165670      5.81872746      3.80768405
  C      3.42075529      2.42860613      0.12964949
  C      2.80658535      1.83848411     -0.97584423
  C      2.73907976      2.49854565     -2.19309489
  C      3.30803083      3.75764431     -2.33004133
  C      3.95083600      4.34201577     -1.24754653
  C      4.00268596      3.68936479     -0.02538299
  H      4.49413418      4.16876783      0.81318127
  H      3.25608071      4.27808254     -3.27903013
  H      4.40920458      5.31862494     -1.35207168
  H      2.37375678      0.84932740     -0.87809586
  H      5.19844458      3.44666964      5.88669126
  C      5.01476067      0.65150094      1.69623654
  C      5.04598610     -0.73914191      1.80331506
  C      6.24983539     -1.42635813      1.77531013
  C      7.44204283     -0.72800852      1.64744032
  C      7.42562549      0.65802162      1.54712687
  C      6.22213886      1.34553192      1.56713170
  H      8.38495668     -1.26148760      1.62730798
  H      8.35548019      1.20658097      1.45270618
  H      6.21760967      2.42653638      1.48271514
  H      2.25088691      2.02237932     -3.03530867
  H      6.25413140     -2.50743841      1.85524252
  H      4.11504395     -1.28390443      1.91326415
  P     -2.20580748     -3.26863104     -3.70363892
  C     -1.76486488     -2.59468730     -5.34306915
  C     -1.59081566     -3.39891653     -6.47392038
  C     -1.23794711     -2.83543289     -7.69022398
  C     -1.04806586     -1.46355561     -7.79784739
  C     -1.22087017     -0.65371226     -6.68443244
  C     -1.57876192     -1.21715382     -5.46987503
  H     -0.76655957     -1.02721373     -8.74891484
  H     -1.73022091     -4.47153654     -6.40150728
  H     -1.71906562     -0.58102233     -4.60207645
  H     -1.07706581      0.41804192     -6.76026497
  C     -3.86313065     -3.98526997     -3.96709848
  C     -4.36761524     -4.85100778     -2.98963656
  C     -5.61738716     -5.42940989     -3.13876663
  C     -6.38877890     -5.13974039     -4.25738362
  C     -5.91174242     -4.25577730     -5.21516324
  C     -4.66002041     -3.67633199     -5.07081987
  H     -4.29653280     -2.98974986     -5.82670491
  H     -7.36246460     -5.59928987     -4.37914800
  H     -6.51571110     -4.01629775     -6.08269693
  H     -3.76600208     -5.08156303     -2.11623426
  H     -1.11226237     -3.47043841     -8.55952586
  C     -1.15270302     -4.76772114     -3.62674790
  C      0.08699682     -4.69436165     -2.99088967
  C      0.95432863     -5.77515146     -2.98248448
  C      0.58397213     -6.96449330     -3.59551346
  C     -0.65821094     -7.06372655     -4.20685413
  C     -1.51930813     -5.97736989     -4.22567221
  H      1.25962996     -7.81162843     -3.59102454
  H     -0.95880261     -7.99189277     -4.67885210
  H     -2.48603167     -6.07343006     -4.70586890
  H     -5.98973173     -6.11026035     -2.38207731
  H      1.92166765     -5.68487081     -2.50133587
  H      0.38061500     -3.77505189     -2.49391087
  P      2.97488032     -1.85065840     -3.02126050
  C      4.28138504     -0.58333861     -2.99044046
  C      5.14351093     -0.41008731     -1.90661431
  C      6.06654620      0.62518740     -1.90562141
  C      6.13473853      1.50538463     -2.97579375
  C      5.27577175      1.34685231     -4.05563189
  C      4.35232960      0.31414537     -4.06178152
  H      6.85603584      2.31404538     -2.96898372
  H      5.10041353     -1.09021350     -1.06315526
  H      3.68288328      0.19426294     -4.90702256
  H      5.32365562      2.03100938     -4.89486762
  C      3.17202975     -2.63665798     -4.64558264
  C      2.02866021     -3.06435036     -5.32333734
  C      2.12964095     -3.68919516     -6.55584518
  C      3.37621670     -3.88832607     -7.13260359
  C      4.52058171     -3.45848920     -6.47333187
  C      4.42342717     -2.83629880     -5.23872423
  H      5.32058194     -2.49536202     -4.73429455
  H      3.45651958     -4.37357210     -8.09820000
  H      5.49505531     -3.60756549     -6.92367204
  H      1.05272092     -2.90213878     -4.87814758
  H      6.73684823      0.74419484     -1.06225157
  C      3.52062632     -3.10593759     -1.81820701
  C      3.20266070     -2.88772039     -0.47528310
  C      3.52005857     -3.82402435      0.49406788
  C      4.16210255     -5.00162021      0.13614657
  C      4.48265862     -5.23249426     -1.19440389
  C      4.16330777     -4.29484290     -2.16683199
  H      4.40295181     -5.74074152      0.89130866
  H      4.98096384     -6.15148525     -1.48043780
  H      4.41517156     -4.49168978     -3.20243023
  H      1.23140866     -4.01511857     -7.06787478
  H      3.25378767     -3.63875540      1.52917491
  H      2.69197154     -1.97355990     -0.19298345
  P      0.55782676     -4.41887235      3.67858410
  C     -1.04053350     -5.04543579      4.27453273
  C     -1.20585046     -6.35875021      4.72540971
  C     -2.44689124     -6.79695973      5.15875413
  C     -3.53736588     -5.93646297      5.14307515
  C     -3.38646073     -4.63442196      4.68675596
  C     -2.14575923     -4.19341522      4.25344942
  H     -4.50635778     -6.28338865      5.48225787
  H     -0.36010016     -7.03749696      4.72947816
  H     -2.02765543     -3.17867149      3.88735255
  H     -4.23588194     -3.96095198      4.66503661
  C      1.69084335     -4.50275147      5.09566152
  C      3.02012818     -4.12170245      4.87766489
  C      3.92610258     -4.09023555      5.92443216
  C      3.51460488     -4.42400930      7.20899665
  C      2.19518825     -4.78643273      7.43970936
  C      1.28593914     -4.82319366      6.39236788
  H      0.25718862     -5.10485463      6.58507175
  H      4.22211648     -4.39687598      8.02924167
  H      1.86886054     -5.04208849      8.44110532
  H      3.34007976     -3.84728446      3.87708604
  H     -2.56477282     -7.81601543      5.50834792
  C      1.11383123     -5.73896032      2.55511046
  C      0.53622821     -5.76722579      1.28183996
  C      0.89488737     -6.74103999      0.36570607
  C      1.85149437     -7.69095161      0.70078108
  C      2.43991603     -7.66510532      1.95764792
  C      2.07186381     -6.69867931      2.88322959
  H      2.13792958     -8.44936615     -0.01840362
  H      3.18584052     -8.40505727      2.22366261
  H      2.53365728     -6.69055681      3.86372927
  H      4.95399100     -3.79995872      5.73936294
  H      0.43025377     -6.75638820     -0.61360598
  H     -0.20178680     -5.01762660      1.01354756
  P     -4.13352824     -0.48029253     -1.46365232
  C     -5.58804122     -0.93114888     -2.46775653
  C     -5.90960252     -0.23594223     -3.63607035
  C     -6.99016544     -0.62577124     -4.41205666
  C     -7.76451677     -1.71389067     -4.03481735
  C     -7.44061316     -2.42557144     -2.88735669
  C     -6.35249116     -2.04900789     -2.11669828
  H     -8.61575220     -2.01054027     -4.63599587
  H     -5.31961282      0.62279982     -3.93594237
  H     -6.09855071     -2.62058363     -1.23052695
  H     -8.03474388     -3.28287047     -2.59300642
  C     -4.02974423      1.32939418     -1.70394612
  C     -4.63839678      2.25794977     -0.85935661
  C     -4.48684428      3.61933238     -1.07875680
  C     -3.72106147      4.07736912     -2.14291986
  C     -3.11376849      3.16505061     -2.99621880
  C     -3.26871111      1.80334147     -2.77795103
  H     -2.80057121      1.09601752     -3.45279861
  H     -3.60289456      5.14132746     -2.31201206
  H     -2.52348790      3.51385293     -3.83562989
  H     -5.24082762      1.91709362     -0.02554983
  H     -7.23117755     -0.07168485     -5.31185929
  C     -4.72706099     -0.64970673      0.25471074
  C     -3.80676151     -0.99298562      1.24607475
  C     -4.20024289     -1.14001796      2.56576242
  C     -5.52899281     -0.95247110      2.91856720
  C     -6.45703750     -0.60825839      1.94467728
  C     -6.06252273     -0.45560462      0.62441745
  H     -5.83987303     -1.07224655      3.94973803
  H     -7.49598522     -0.45811786      2.21418344
  H     -6.79857899     -0.19273926     -0.12651087
  H     -4.97578103      4.32549965     -0.41748139
  H     -3.46754468     -1.40488641      3.31958268
  H     -2.76695455     -1.15132868      0.97846825
  P     -1.01439142      2.12409381      3.46713668
  C     -2.78851888      2.03024275      3.85048145
  C     -3.27065163      1.82507028      5.14645470
  C     -4.63338981      1.84842669      5.39709067
  C     -5.53017540      2.09445691      4.36547707
  C     -5.06064547      2.30816403      3.07679557
  C     -3.69943163      2.26985310      2.81984936
  H     -6.59460797      2.12154768      4.56656770
  H     -2.57692404      1.65201859      5.96149783
  H     -3.33328647      2.42756030      1.81055092
  H     -5.75753353      2.50079731      2.26921584
  C     -0.57443417      3.72005287      4.22458114
  C     -0.56484215      4.85183520      3.40743769
  C     -0.32543096      6.10868955      3.94119150
  C     -0.08161798      6.24861007      5.30134021
  C     -0.07858955      5.12813026      6.12170914
  C     -0.32921819      3.87200520      5.59177374
  H     -0.33513416      3.00582619      6.24353076
  H      0.10636747      7.22981588      5.72082652
  H      0.11323321      5.23307381      7.18320690
  H     -0.75194119      4.74333096      2.34465115
  H     -4.99667843      1.68314595      6.40469338
  C     -0.19605712      0.88219733      4.50992215
  C     -0.81155586     -0.32012220      4.86544406
  C     -0.10950044     -1.28798610      5.57152864
  C      1.22143058     -1.08140950      5.91155745
  C      1.85257292      0.09653738      5.53723700
  C      1.15074537      1.06855874      4.84109202
  H      1.76421967     -1.83796950      6.46525086
  H      2.89313624      0.26402702      5.79068697
  H      1.64438223      1.99256778      4.56442200
  H     -0.33264850      6.97932021      3.29527470
  H     -0.60803642     -2.20429099      5.86593361
  H     -1.84830693     -0.49539843      4.60272861
