#B3LYP/6-31+G(d) OPT FREQ

246, Energy =   -372.45541957 au

0 1
 Au     -2.63571899     -0.02877040      1.37467909
 Au      0.17836040      0.36457234      1.53989283
 Au     -1.41928568     -1.50368068      3.07241063
 Au     -0.75290517     -0.75905906     -0.91176186
 Au     -2.88152580      1.49669773     -0.95278637
 Au      2.00027515     -0.53090275     -0.38676049
 Au      0.37373220      1.64275401     -1.09331033
 Au     -1.64099014      0.96247232     -3.12627874
  P      1.11610936      1.82799350      3.23862092
  C      0.57394158      1.69997340      4.97264116
  C      1.27553732      0.88434079      5.86566613
  C      0.83445417      0.72162918      7.16871989
  C     -0.31586278      1.36791071      7.60023353
  C     -1.02841764      2.16873151      6.71773673
  C     -0.59487165      2.32746856      5.41043319
  H     -0.65652048      1.24731806      8.62167076
  H      2.17982151      0.38444060      5.53938482
  H     -1.15940617      2.95428770      4.72893860
  H     -1.92516725      2.67780780      7.05178656
  C      0.60107141      3.51050649      2.75771241
  C     -0.62461021      3.65304846      2.10105169
  C     -1.07579363      4.89984238      1.70090824
  C     -0.30390678      6.02773828      1.94431368
  C      0.91946642      5.89960344      2.58743720
  C      1.36884266      4.65237305      2.99410952
  H      2.32700670      4.56826969      3.49351314
  H     -0.65663739      7.00387431      1.63287810
  H      1.52941975      6.77559426      2.77509503
  H     -1.22897369      2.77443106      1.90220965
  H      1.39352901      0.08896173      7.84857020
  C      2.93324607      1.91778429      3.35162449
  C      3.69597590      1.37812381      2.31434000
  C      5.07997099      1.45117546      2.33097436
  C      5.72758887      2.05328386      3.40143292
  C      4.98342514      2.58281986      4.44724224
  C      3.59839323      2.52083490      4.42424526
  H      6.80961037      2.10705258      3.42122856
  H      5.48407968      3.05084386      5.28677541
  H      3.03069805      2.93660227      5.24859777
  H     -2.03013623      4.99039285      1.19488147
  H      5.65050573      1.03865779      1.50652270
  H      3.19748768      0.89363263      1.48080135
  P     -4.64120733      1.98098111      0.70631185
  C     -6.20452856      1.36359961      0.00510977
  C     -7.39836162      1.32978336      0.73311031
  C     -8.56770913      0.87764176      0.14310323
  C     -8.56843651      0.45861745     -1.18079735
  C     -7.39126227      0.49234226     -1.91588146
  C     -6.22004105      0.94093483     -1.32524708
  H     -9.48522592      0.10722446     -1.63908649
  H     -7.41359277      1.65561586      1.76679477
  H     -5.30095032      0.96121957     -1.90116812
  H     -7.38361492      0.17115649     -2.95104208
  C     -4.90386094      3.78549534      0.76598095
  C     -4.18236442      4.61047579     -0.09809330
  C     -4.37331385      5.98390671     -0.08370556
  C     -5.28824289      6.55197004      0.79078083
  C     -6.01718276      5.74020726      1.64977729
  C     -5.82849759      4.36787867      1.63879826
  H     -6.40239642      3.74404102      2.31454101
  H     -5.43470651      7.62554811      0.80118110
  H     -6.73720536      6.17696990      2.33188876
  H     -3.47047065      4.17058930     -0.78926404
  H     -9.48442699      0.85462405      0.72076065
  C     -4.74817552      1.49937365      2.46415278
  C     -5.26138032      0.24482711      2.81876297
  C     -5.25745993     -0.17210025      4.14077293
  C     -4.73614127      0.65213720      5.12882027
  C     -4.20889988      1.88985261      4.78664041
  C     -4.20143716      2.30716793      3.46454489
  H     -4.74174250      0.33076973      6.16371905
  H     -3.80320679      2.53789055      5.55471475
  H     -3.77756057      3.27176826      3.20830931
  H     -3.80331921      6.61101359     -0.75883429
  H     -5.66342652     -1.14354294      4.39836983
  H     -5.67513196     -0.40044492      2.05251496
  P      4.01795363     -1.81661299     -0.63870851
  C      5.42562823     -0.78748417     -1.14303214
  C      6.74129626     -1.25455336     -1.23203413
  C      7.76057947     -0.40219751     -1.62769219
  C      7.48843776      0.92567626     -1.93016658
  C      6.19039529      1.40664052     -1.82652648
  C      5.17070383      0.55497879     -1.43376758
  H      8.28968841      1.58718692     -2.23773771
  H      6.97048801     -2.28287726     -0.97729100
  H      4.15748904      0.93173773     -1.33854766
  H      5.97104434      2.44518427     -2.04701795
  C      3.77410040     -3.07250322     -1.93817914
  C      2.50422759     -3.65096407     -2.02439731
  C      2.23828824     -4.64776173     -2.94922290
  C      3.23568987     -5.07047695     -3.81702385
  C      4.49680713     -4.49309809     -3.75173717
  C      4.76812863     -3.50363287     -2.81780829
  H      5.75724880     -3.06307535     -2.78121144
  H      3.03007808     -5.84623026     -4.54508638
  H      5.27838204     -4.81861169     -4.42834933
  H      1.71865533     -3.31085044     -1.35783186
  H      8.77530912     -0.77666096     -1.69590904
  C      4.66278329     -2.82152024      0.74041798
  C      5.62498587     -2.31137824      1.61667574
  C      6.06149171     -3.06240492      2.69824264
  C      5.52958903     -4.32244590      2.93460635
  C      4.56410192     -4.83373466      2.07785878
  C      4.13439529     -4.09120003      0.98939982
  H      5.86893175     -4.90570229      3.78234974
  H      4.14785169     -5.81938362      2.25262728
  H      3.38949095     -4.50628206      0.31958568
  H      1.25004650     -5.09164026     -2.99285482
  H      6.81906312     -2.65809950      3.35966125
  H      6.04568120     -1.32696651      1.44549887
  P     -0.42142341     -2.84936235      4.73847009
  C     -1.18909356     -2.61395816      6.36731375
  C     -1.12663027     -3.56867116      7.38630740
  C     -1.73090447     -3.32584099      8.61010682
  C     -2.40872211     -2.13448220      8.83134537
  C     -2.48635742     -1.18455157      7.82174873
  C     -1.88242673     -1.42346363      6.59774416
  H     -2.88264904     -1.94910903      9.78800034
  H     -0.61260609     -4.50799011      7.21607265
  H     -1.94806019     -0.68225515      5.80731528
  H     -3.02181888     -0.25642563      7.98647567
  C      1.33378807     -2.43566556      4.99241456
  C      2.05181863     -1.94116285      3.90158588
  C      3.37785027     -1.56596912      4.03724368
  C      4.01284039     -1.68850152      5.26601099
  C      3.31317615     -2.18719792      6.35660847
  C      1.98208619     -2.55423305      6.22396002
  H      1.44006476     -2.92510345      7.08629594
  H      5.04939502     -1.39073613      5.37248959
  H      3.80319835     -2.28389238      7.31837573
  H      1.56027608     -1.83620049      2.94002673
  H     -1.67547750     -4.07280057      9.39337131
  C     -0.43359953     -4.65462608      4.51040395
  C     -1.60369846     -5.23289744      4.01015651
  C     -1.68083392     -6.59972736      3.79977840
  C     -0.58775436     -7.40832412      4.08407950
  C      0.58007462     -6.84446482      4.57979292
  C      0.66065197     -5.47571007      4.79082803
  H     -0.64612747     -8.47760328      3.91867543
  H      1.43433964     -7.47233341      4.80514239
  H      1.57824401     -5.04437029      5.17435882
  H      3.91447112     -1.17008171      3.18323600
  H     -2.59417300     -7.03516535      3.41134571
  H     -2.45783166     -4.60135620      3.78841122
  P      1.13462707      3.78144422     -1.87784650
  C     -0.13056781      5.07085699     -2.08842876
  C     -0.08598308      6.30920592     -1.44683199
  C     -1.07013309      7.25780635     -1.68354072
  C     -2.11504648      6.98160124     -2.55488735
  C     -2.19196366      5.73667927     -3.16857513
  C     -1.21089871      4.78906753     -2.93120797
  H     -2.86508756      7.73579969     -2.76143242
  H      0.72753826      6.53910105     -0.76859836
  H     -1.26932195      3.81953651     -3.41610265
  H     -3.01236264      5.50787935     -3.83892092
  C      1.86212629      3.63065332     -3.54429969
  C      2.81402853      2.62372069     -3.72538939
  C      3.45360181      2.45933247     -4.94269010
  C      3.15179433      3.30493156     -6.00183114
  C      2.20977034      4.30971935     -5.83368184
  C      1.56474344      4.47249745     -4.61658054
  H      0.82962296      5.26059586     -4.50479817
  H      3.65039599      3.18112587     -6.95584170
  H      1.97176195      4.97384978     -6.65639125
  H      3.05559906      1.96861355     -2.89544356
  H     -1.01394114      8.22170667     -1.19116494
  C      2.50910012      4.58577320     -0.99529753
  C      2.99632958      4.02202817      0.18278411
  C      4.07614328      4.58918562      0.84295089
  C      4.68178496      5.72828039      0.33320368
  C      4.20976891      6.29519696     -0.84393929
  C      3.13570693      5.72692742     -1.50855962
  H      5.52521514      6.17134568      0.84952346
  H      4.68485077      7.18096306     -1.24912746
  H      2.78306224      6.16392453     -2.43632231
  H      4.18672442      1.66999587     -5.06359166
  H      4.44829950      4.13776558      1.75514184
  H      2.52360651      3.13129824      0.58225063
  P     -0.84558262      0.40339841     -5.30785047
  C     -0.59066027      1.80758092     -6.43735267
  C      0.36882149      1.83244177     -7.45128741
  C      0.46898722      2.92992536     -8.29361727
  C     -0.37564098      4.01938850     -8.12803855
  C     -1.32370124      4.01130163     -7.11305190
  C     -1.43084772      2.91287999     -6.27595631
  H     -0.29430731      4.87475941     -8.78818933
  H      1.04325577      0.99395709     -7.58188093
  H     -2.17733173      2.90344006     -5.48834741
  H     -1.98198071      4.86121906     -6.97470366
  C     -2.04761247     -0.63462542     -6.19556010
  C     -2.94634780     -1.38246240     -5.43111455
  C     -3.88483575     -2.20042967     -6.03886256
  C     -3.94032725     -2.27995475     -7.42383480
  C     -3.06277628     -1.52994362     -8.19532850
  C     -2.12487076     -0.70830529     -7.58892656
  H     -1.45840863     -0.11143703     -8.20143611
  H     -4.67313235     -2.91916772     -7.90202013
  H     -3.11166906     -1.58064443     -9.27685482
  H     -2.90413804     -1.31909700     -4.34836567
  H      1.21234425      2.93342923     -9.08237331
  C      0.72092758     -0.52630192     -5.40235773
  C      1.63771634     -0.35516111     -4.36459037
  C      2.87475404     -0.97758864     -4.39732835
  C      3.20706817     -1.80064381     -5.46418665
  C      2.29431699     -2.00265515     -6.49026902
  C      1.06035631     -1.36928766     -6.46371535
  H      4.17365891     -2.28961757     -5.49173471
  H      2.54601165     -2.65204556     -7.32063166
  H      0.35738142     -1.53209273     -7.27243534
  H     -4.57296774     -2.77560999     -5.42983803
  H      3.57865393     -0.81999836     -3.58768718
  H      1.37788999      0.28302928     -3.52677419
  P     -1.64774909     -2.97254912     -1.13242555
  C     -1.80861618     -3.68718276     -2.79545881
  C     -2.82900718     -4.56697839     -3.16478197
  C     -2.84970367     -5.11803127     -4.43758683
  C     -1.85163641     -4.80767698     -5.35148122
  C     -0.83689851     -3.92929561     -4.99601578
  C     -0.82024275     -3.36527975     -3.73042376
  H     -1.86830211     -5.24422858     -6.34305466
  H     -3.61040347     -4.81720064     -2.45643503
  H     -0.03577531     -2.66535805     -3.46011341
  H     -0.05924761     -3.67593868     -5.70739506
  C     -3.30809081     -3.04003501     -0.39934603
  C     -3.51730850     -3.51222774      0.89855355
  C     -4.76622243     -3.40951685      1.49309310
  C     -5.82292101     -2.83434616      0.80058367
  C     -5.62499949     -2.35757531     -0.48932287
  C     -4.37571644     -2.44661852     -1.08102198
  H     -4.22255985     -2.05580818     -2.08174292
  H     -6.80078071     -2.76176670      1.26177169
  H     -6.44649513     -1.90706253     -1.03413630
  H     -2.69932129     -3.97152813      1.44196083
  H     -3.64679991     -5.79823708     -4.71409185
  C     -0.70915165     -4.24584858     -0.22258461
  C      0.15773308     -3.84263186      0.79496021
  C      0.90721387     -4.76962791      1.50076170
  C      0.80723355     -6.11934801      1.19297169
  C     -0.05026001     -6.53462490      0.18333203
  C     -0.80313684     -5.60763107     -0.52074992
  H      1.39541868     -6.84547697      1.74160641
  H     -0.13276004     -7.58762835     -0.05928395
  H     -1.46609911     -5.94392540     -1.30979243
  H     -4.91253689     -3.78207509      2.50047942
  H      1.56994518     -4.43548763      2.29081777
  H      0.24821169     -2.78893902      1.03196318

