#B3LYP/6-31+G(d) OPT FREQ

246, Energy =   -372.47185921 au

0 1
 Au      0.29731569      2.58865152     -0.59788754
 Au      0.05275654     -0.69818764      2.53201394
 Au      2.87151177     -1.35055013     -1.24481479
 Au      0.66226158     -0.02136240     -0.00807781
 Au      1.23931687      0.80176299     -2.48128140
 Au     -1.52747597      1.06761981      0.95182921
 Au      1.02758119     -2.56106529      0.74857952
 Au      0.55913928     -2.07848399     -2.14054596
  P      1.74845429      1.31067819     -4.75796734
  C      1.89032857     -0.15718352     -5.82036523
  C      2.99704291     -0.43147808     -6.62460356
  C      3.04879957     -1.60352783     -7.36525356
  C      2.00282347     -2.51404467     -7.31196942
  C      0.89829341     -2.25282945     -6.51077344
  C      0.84645288     -1.08666781     -5.76645064
  H      2.04784774     -3.42781912     -7.89269828
  H      3.81894669      0.27348929     -6.67308474
  H     -0.01319074     -0.88419515     -5.13707529
  H      0.07688402     -2.95924205     -6.46314550
  C      3.32859144      2.18724872     -4.94611216
  C      3.52518065      3.23384371     -5.84898019
  C      4.75151771      3.87923401     -5.91521863
  C      5.79423510      3.48796731     -5.08614269
  C      5.60871445      2.44835198     -4.18387301
  C      4.38293374      1.80783484     -4.10971826
  H      4.23542420      1.00227863     -3.39679665
  H      6.75095948      3.99376492     -5.14141026
  H      6.42049281      2.13693215     -3.53614806
  H      2.71593286      3.54508865     -6.49958115
  H      3.91238701     -1.80501386     -7.98841403
  C      0.52210956      2.36418040     -5.59024410
  C     -0.02328642      3.41972140     -4.85385033
  C     -0.98107968      4.25169736     -5.40976941
  C     -1.42023402      4.02954012     -6.70898677
  C     -0.89404267      2.97724958     -7.44592518
  C      0.07221126      2.14878609     -6.89400945
  H     -2.17355124      4.67506118     -7.14491268
  H     -1.23566035      2.80025826     -8.45916705
  H      0.47661905      1.32970197     -7.47731629
  H      4.89334754      4.68950505     -6.62091304
  H     -1.38615384      5.07146242     -4.82683748
  H      0.31201836      3.58563848     -3.83542388
  P      4.78701566     -0.45369859     -0.11779988
  C      4.28882643      1.18573435      0.49207159
  C      3.44902581      1.27232081      1.60689742
  C      2.91907324      2.49099856      1.99960957
  C      3.22422023      3.64375080      1.28585013
  C      4.05327184      3.56946134      0.17482714
  C      4.57222003      2.34825453     -0.22737564
  H      2.82217668      4.59933519      1.59998807
  H      3.21521232      0.37765156      2.17414614
  H      5.20810241      2.29915047     -1.10418157
  H      4.30055911      4.46779258     -0.37895637
  C      6.33869773     -0.16011983     -1.01975270
  C      6.46858417     -0.71572566     -2.29489021
  C      7.62103586     -0.51303218     -3.03883846
  C      8.65886348      0.24608889     -2.51569560
  C      8.54175519      0.80014926     -1.24719756
  C      7.39097769      0.60082218     -0.50180952
  H      7.30692082      1.04097489      0.48526868
  H      9.56017213      0.40568032     -3.09568976
  H      9.35131144      1.39209590     -0.83629836
  H      5.65675561     -1.30868061     -2.70375303
  H      2.27193926      2.54182663      2.86810690
  C      5.24556624     -1.34925282      1.40111833
  C      4.86576152     -2.68851134      1.51040628
  C      5.17695735     -3.42543641      2.64220548
  C      5.88334267     -2.83374692      3.68004140
  C      6.27094483     -1.50301380      3.58192017
  C      5.95000333     -0.76148012      2.45513203
  H      6.13349542     -3.40807583      4.56425911
  H      6.83369844     -1.04081518      4.38473073
  H      6.24546361      0.27980387      2.39644958
  H      7.70826790     -0.94860737     -4.02744120
  H      4.87158838     -4.46375011      2.70946300
  H      4.32016524     -3.15464507      0.69701211
  P     -3.71138347      1.71028583      1.53045451
  C     -3.95704997      3.46704239      1.92989029
  C     -5.17124097      4.13411172      1.74976845
  C     -5.30118359      5.46334984      2.12301206
  C     -4.22361670      6.14554121      2.67213171
  C     -3.00617354      5.49815625      2.83502208
  C     -2.87483793      4.16942349      2.46359425
  H     -4.33009958      7.18318313      2.96542539
  H     -6.01575512      3.61539924      1.31073062
  H     -1.92306298      3.66302485      2.58295591
  H     -2.15607132      6.02810713      3.24912436
  C     -4.40345473      0.81261601      2.95436432
  C     -3.93813327     -0.48175023      3.19565067
  C     -4.46051398     -1.24197299      4.22936575
  C     -5.45254713     -0.71376768      5.04463546
  C     -5.90922995      0.57895710      4.82744556
  C     -5.38918806      1.34040879      3.79155202
  H     -5.74674712      2.35213722      3.63791305
  H     -5.86237156     -1.30632884      5.85394036
  H     -6.67512268      0.99940397      5.46864847
  H     -3.15793342     -0.89239225      2.56313848
  H     -6.25014656      5.96807280      1.98412213
  C     -4.90028705      1.38349781      0.19329907
  C     -4.43064037      1.40178184     -1.12127220
  C     -5.29406066      1.19043592     -2.18480738
  C     -6.64154863      0.95349711     -1.94800367
  C     -7.11799475      0.91848063     -0.64399801
  C     -6.25508063      1.12877867      0.42132569
  H     -7.31814547      0.78969204     -2.77833186
  H     -8.16749310      0.72669511     -0.45367528
  H     -6.63524317      1.08569348      1.43558741
  H     -4.08790563     -2.24528799      4.40255597
  H     -4.91265404      1.20649180     -3.19943739
  H     -3.37704081      1.58196547     -1.30660177
  P      1.35868163     -4.89255394      1.19074752
  C      0.02707285     -5.90253056      0.47731451
  C      0.17613798     -6.56370366     -0.74365150
  C     -0.90782158     -7.18850575     -1.34102418
  C     -2.15664703     -7.15396703     -0.73666064
  C     -2.31778098     -6.49831217      0.47691344
  C     -1.23676314     -5.87238097      1.07657602
  H     -3.00352905     -7.63577950     -1.21101652
  H      1.14526280     -6.59263055     -1.22880545
  H     -1.36896988     -5.35517389      2.02100080
  H     -3.28999275     -6.46765962      0.95536516
  C      1.37563150     -5.26977268      2.96752641
  C      1.89128971     -4.29240352      3.82278772
  C      1.95289414     -4.50656386      5.18968058
  C      1.49195088     -5.70298795      5.72276412
  C      0.97430740     -6.68098636      4.88413795
  C      0.91698067     -6.47078434      3.51450043
  H      0.51204212     -7.24008499      2.86708743
  H      1.53185140     -5.87088029      6.79257686
  H      0.61314381     -7.61501299      5.29859306
  H      2.24573712     -3.35516341      3.40587836
  H     -0.77642611     -7.69994052     -2.28773896
  C      2.89756205     -5.63231005      0.55752678
  C      3.37325408     -5.20736686     -0.68715503
  C      4.55668363     -5.71178609     -1.20259714
  C      5.28762538     -6.64292210     -0.47695976
  C      4.82801385     -7.06881857      0.76157352
  C      3.64221435     -6.56856758      1.27830250
  H      6.21623260     -7.03386947     -0.87564104
  H      5.39576081     -7.79502816      1.33160071
  H      3.29256396     -6.90983380      2.24582515
  H      2.35369774     -3.73579762      5.83852363
  H      4.91058922     -5.37222844     -2.16925977
  H      2.80964905     -4.47215910     -1.25257346
  P     -1.68639529     -2.56694514     -2.78519122
  C     -2.33296578     -1.33995111     -3.96537350
  C     -2.89367855     -1.66622250     -5.20065778
  C     -3.29257093     -0.66561263     -6.07587981
  C     -3.13712996      0.66933816     -5.73195991
  C     -2.57897001      1.00630149     -4.50465600
  C     -2.17520985      0.00970720     -3.63242808
  H     -3.44143064      1.44940199     -6.41991185
  H     -3.01580559     -2.70626183     -5.48035012
  H     -1.72831889      0.27538364     -2.67943856
  H     -2.44246021      2.04723829     -4.23461496
  C     -2.91246493     -2.52454137     -1.43624836
  C     -2.53553328     -3.01378814     -0.18461939
  C     -3.43680497     -3.04360050      0.86658616
  C     -4.73240619     -2.57803360      0.68429215
  C     -5.11716846     -2.08219062     -0.55314188
  C     -4.21620919     -2.05323723     -1.60696560
  H     -4.52722612     -1.65846520     -2.56738359
  H     -5.43834747     -2.60015575      1.50620151
  H     -6.12662706     -1.71615565     -0.70081658
  H     -1.52573362     -3.38153021     -0.03645205
  H     -3.72377236     -0.93265902     -7.03363568
  C     -1.95758192     -4.18682726     -3.56046917
  C     -0.85686189     -4.81895577     -4.14474357
  C     -0.99137467     -6.06292843     -4.74047310
  C     -2.22701796     -6.69683019     -4.74921095
  C     -3.32538938     -6.08288133     -4.16129594
  C     -3.19523297     -4.83594453     -3.57011550
  H     -2.33307874     -7.67149522     -5.21059913
  H     -4.28945039     -6.57805891     -4.16249448
  H     -4.05627675     -4.36525820     -3.10895033
  H     -3.12966780     -3.43792914      1.82822376
  H     -0.13022177     -6.54000072     -5.19370160
  H      0.11116953     -4.32884047     -4.12433534
  P     -0.29541623     -0.77984183      4.89835172
  C      1.21681060     -0.47141770      5.86049732
  C      1.20768836      0.02978056      7.16455161
  C      2.39838804      0.22423865      7.84798970
  C      3.61049066     -0.07402545      7.24049526
  C      3.63093975     -0.55992542      5.94006938
  C      2.44333122     -0.75355384      5.25398527
  H      4.53935063      0.07886286      7.77725643
  H      0.26648789      0.27726999      7.64236553
  H      2.46185813     -1.12081532      4.23263620
  H      4.57387714     -0.78478596      5.45502091
  C     -0.86824643     -2.40810158      5.47644275
  C     -1.49434483     -3.23996441      4.54543560
  C     -1.97337551     -4.48629855      4.91654728
  C     -1.82346642     -4.92364333      6.22557946
  C     -1.18671964     -4.11371251      7.15647857
  C     -0.70970874     -2.86506523      6.78716630
  H     -0.20277719     -2.24622331      7.51878939
  H     -2.19517326     -5.89867775      6.51764953
  H     -1.05922073     -4.45652644      8.17666450
  H     -1.59526857     -2.90379770      3.51861959
  H      2.37870551      0.61258129      8.85964382
  C     -1.48834493      0.40836731      5.59595151
  C     -1.47484279      1.70649944      5.07694899
  C     -2.34658276      2.66878337      5.55948021
  C     -3.25314333      2.34598218      6.56075449
  C     -3.28265719      1.05795392      7.07566161
  C     -2.40805993      0.09347859      6.59733253
  H     -3.93791752      3.09754807      6.93550240
  H     -3.99144782      0.79950346      7.85377597
  H     -2.44546360     -0.91090622      7.00297876
  H     -2.46024500     -5.11837931      4.18262933
  H     -2.32287898      3.67295867      5.15188341
  H     -0.77224327      1.95909836      4.28837750
  P     -0.12394959      4.93735660     -0.78517258
  C     -1.88946252      5.24589880     -1.10109602
  C     -2.62532582      6.27153817     -0.50658758
  C     -3.97453504      6.42246077     -0.79146802
  C     -4.60669962      5.55416890     -1.66992338
  C     -3.88490588      4.52764308     -2.26506562
  C     -2.53945232      4.37073556     -1.97650505
  H     -5.66105954      5.67430986     -1.88921541
  H     -2.14360183      6.95273198      0.18543979
  H     -1.97828964      3.56105857     -2.43208433
  H     -4.37325797      3.84517513     -2.95117658
  C      0.70533004      5.74419205     -2.19103416
  C      1.97765741      5.28551559     -2.54501495
  C      2.65843969      5.84643381     -3.61340448
  C      2.07117250      6.86497373     -4.35228940
  C      0.80430342      7.32211245     -4.01603193
  C      0.12295316      6.76779189     -2.94250051
  H     -0.86814294      7.12721576     -2.69001355
  H      2.59991276      7.29961082     -5.19243402
  H      0.34189605      8.11487766     -4.59252413
  H      2.43013117      4.47855510     -1.97773422
  H     -4.53431275      7.22299639     -0.32194510
  C      0.27574688      5.98625363      0.64658697
  C      0.35923540      5.37315626      1.89938406
  C      0.64207680      6.11736968      3.03474465
  C      0.85702457      7.48538862      2.92893510
  C      0.79149730      8.10270571      1.68709972
  C      0.50413400      7.36105975      0.55129672
  H      1.08226167      8.06863440      3.81394199
  H      0.96676074      9.16874699      1.60111576
  H      0.46280966      7.84998545     -0.41548056
  H      3.64533349      5.48234393     -3.87540395
  H      0.70265472      5.62705614      3.99963938
  H      0.20125484      4.30228546      1.97844889

