#B3LYP/6-31+G(d) OPT FREQ

246, Energy =   -372.45358780 au

0 1
 Au      2.78291400      0.09960349     -0.14472152
 Au      0.51594351      0.76252333      1.50615020
 Au      0.03219384      0.10936978     -0.99582243
 Au     -0.90432635     -1.61163659      2.77366851
 Au     -2.30114003      0.23608372      0.77726795
 Au     -1.63796769     -2.66219594      0.54974998
 Au      1.21057744     -1.92642733      0.64972714
 Au     -1.17728056      2.54243609      0.00730194
  P     -1.08826844      4.92989411     -0.24314244
  C     -1.13416813      5.64176416     -1.91800451
  C     -2.19204397      6.41042374     -2.40515754
  C     -2.16586422      6.89144883     -3.70634045
  C     -1.09018406      6.60889955     -4.53661717
  C     -0.03637754      5.83577375     -4.06486254
  C     -0.06126067      5.35268393     -2.76771305
  H     -1.07255332      6.98840052     -5.55143922
  H     -3.03564455      6.63964076     -1.76452428
  H      0.76163050      4.74871861     -2.39930897
  H      0.80424973      5.60650765     -4.70968580
  C      0.25688558      5.83968893      0.58090045
  C      0.86613690      5.25960656      1.69612154
  C      1.87049249      5.92468974      2.38066585
  C      2.29566674      7.17343338      1.94799999
  C      1.70792707      7.75505188      0.83255242
  C      0.69334864      7.09715446      0.15363492
  H      0.23595667      7.56181749     -0.71215889
  H      3.08476003      7.69224262      2.47939599
  H      2.03692294      8.72960545      0.49104211
  H      0.54364258      4.27922399      2.02940247
  H     -2.99003842      7.49348996     -4.07102211
  C     -2.59666924      5.53696383      0.56830973
  C     -3.79773112      4.89900088      0.24068499
  C     -4.98182685      5.25685918      0.86216659
  C     -4.98136411      6.24661192      1.83687108
  C     -3.79410961      6.87869972      2.17907751
  C     -2.60774246      6.52945914      1.54924978
  H     -5.90569651      6.52177908      2.33095148
  H     -3.78925624      7.65094462      2.93956700
  H     -1.68672242      7.03080828      1.82309605
  H      2.32458147      5.46526760      3.25122042
  H     -5.90472437      4.75631667      0.59273014
  H     -3.79510646      4.11436165     -0.50934186
  P      4.92623900      1.12630877     -0.36753450
  C      4.87555664      2.94605586     -0.37535529
  C      5.96909561      3.75372756     -0.05185305
  C      5.85069401      5.13583109     -0.07266528
  C      4.64302013      5.72952324     -0.41499598
  C      3.54718969      4.93660803     -0.72578964
  C      3.66072107      3.55599738     -0.69660277
  H      4.55232913      6.80931028     -0.43137163
  H      6.91338945      3.30062300      0.22765248
  H      2.79899151      2.93662743     -0.92298011
  H      2.59975391      5.39458924     -0.98548618
  C      5.90507724      0.63689041     -1.81893818
  C      5.76165594     -0.68444460     -2.25319521
  C      6.47267212     -1.14843605     -3.34755921
  C      7.33232600     -0.29579110     -4.02853757
  C      7.47451605      1.02079480     -3.61198396
  C      6.76500583      1.48820832     -2.51495083
  H      6.87639727      2.52044719     -2.20366276
  H      7.88792066     -0.65671324     -4.88589811
  H      8.14185591      1.68962972     -4.14288046
  H      5.08312937     -1.34926789     -1.72703332
  H      6.70636006      5.75124137      0.17954279
  C      6.01101534      0.73437320      1.04077551
  C      5.40354845      0.44194369      2.26374340
  C      6.16784959      0.19086041      3.39231452
  C      7.55404538      0.20804736      3.30753170
  C      8.16890207      0.46987211      2.09059506
  C      7.40570023      0.73357901      0.96325068
  H      8.15379446      0.01207760      4.18847886
  H      9.25026841      0.47257483      2.01862108
  H      7.89521952      0.93273124      0.01664446
  H      6.35390828     -2.17634133     -3.67103058
  H      5.67971291     -0.00849905      4.33969583
  H      4.32061662      0.42026623      2.32783903
  P     -2.61522921     -3.84107622     -1.25059234
  C     -3.23281146     -2.89262406     -2.67812029
  C     -3.57075106     -3.51261300     -3.88442886
  C     -4.12416345     -2.77856974     -4.92088705
  C     -4.34259934     -1.41528923     -4.77259320
  C     -3.99446921     -0.78694447     -3.58576642
  C     -3.44330503     -1.51945377     -2.54623814
  H     -4.77978460     -0.84250693     -5.58182506
  H     -3.40323412     -4.57600432     -4.01149253
  H     -3.18152357     -1.02347314     -1.61709400
  H     -4.15994905      0.27709962     -3.46689806
  C     -4.10392126     -4.69628211     -0.65620081
  C     -3.94717627     -5.77965165      0.21464695
  C     -5.05429743     -6.41995631      0.74749871
  C     -6.33313472     -5.97617135      0.43381483
  C     -6.49879243     -4.89095657     -0.41503469
  C     -5.39307283     -4.25275461     -0.95687528
  H     -5.53286747     -3.40923138     -1.62323482
  H     -7.19853985     -6.47538930      0.85316936
  H     -7.49413012     -4.53912616     -0.66081930
  H     -2.94954264     -6.12324563      0.46824631
  H     -4.38753266     -3.27404790     -5.84799065
  C     -1.61139132     -5.17225583     -1.97627909
  C     -0.22796015     -4.99921735     -2.03493785
  C      0.58161222     -5.95782346     -2.62589914
  C      0.01914661     -7.11660835     -3.14459959
  C     -1.35330095     -7.31144666     -3.06908509
  C     -2.16583330     -6.34651409     -2.49420952
  H      0.65156825     -7.86863190     -3.60122245
  H     -1.79578878     -8.21861484     -3.46358049
  H     -3.23564514     -6.51065250     -2.43764712
  H     -4.91872387     -7.26721634      1.40991939
  H      1.65286022     -5.80123874     -2.67636963
  H      0.21482665     -4.10398620     -1.61023576
  P     -0.07136616      0.23373360     -3.40435006
  C     -1.11214794      1.59238702     -4.03695133
  C     -0.85450603      2.20708331     -5.26693152
  C     -1.65730513      3.24342014     -5.71699898
  C     -2.72268223      3.68976548     -4.94625104
  C     -2.98114978      3.09684940     -3.71888227
  C     -2.18513560      2.05285351     -3.27323276
  H     -3.34354419      4.50561369     -5.29695755
  H     -0.01460439      1.87811493     -5.86829056
  H     -2.39565281      1.59147531     -2.31529382
  H     -3.80139534      3.44906510     -3.10368200
  C     -0.40185759     -1.17604555     -4.51073793
  C      0.19629795     -2.39971911     -4.19365233
  C      0.03577124     -3.49896532     -5.02188659
  C     -0.73937133     -3.39850573     -6.16914851
  C     -1.35411571     -2.19442077     -6.48201044
  C     -1.18839904     -1.08970985     -5.66006128
  H     -1.67520737     -0.15610675     -5.91675152
  H     -0.86574974     -4.25867990     -6.81585484
  H     -1.96524335     -2.11097969     -7.37318695
  H      0.79411316     -2.48297858     -3.29149247
  H     -1.44616467      3.70932652     -6.67242571
  C      1.58773070      0.78282433     -3.92964787
  C      1.99020954      2.06556964     -3.54363288
  C      3.24588252      2.54542118     -3.87635835
  C      4.12973068      1.74172595     -4.58466204
  C      3.75343931      0.45639373     -4.94643859
  C      2.49210447     -0.02204969     -4.62242852
  H      5.11163759      2.11601304     -4.84889557
  H      4.44388584     -0.17907941     -5.48913570
  H      2.21052272     -1.02518298     -4.92131741
  H      0.51602124     -4.43739735     -4.77048316
  H      3.53525250      3.54802880     -3.58281717
  H      1.30032559      2.69314117     -2.98943838
  P     -4.65751689     -0.10160475      1.30539349
  C     -5.67769146      0.11703181     -0.18312571
  C     -6.59362985     -0.83893705     -0.62551503
  C     -7.29129027     -0.64941754     -1.80947947
  C     -7.08907392      0.49692664     -2.56455234
  C     -6.17595448      1.45360063     -2.13698859
  C     -5.46668728      1.25897481     -0.96299524
  H     -7.63908240      0.64597129     -3.48618107
  H     -6.76803376     -1.73202856     -0.03662551
  H     -4.74224670      1.99941341     -0.63946184
  H     -6.01577783      2.35279949     -2.72091878
  C     -5.12569032      1.29150413      2.38166191
  C     -4.32545883      1.51882243      3.50492016
  C     -4.63833941      2.52589755      4.40297554
  C     -5.74421600      3.33620280      4.18003085
  C     -6.53764740      3.12840011      3.06062825
  C     -6.23576008      2.11023970      2.16754859
  H     -6.86669627      1.95312383      1.30048852
  H     -5.98697704      4.12756931      4.87939084
  H     -7.40359321      3.75594185      2.88434202
  H     -3.45365482      0.89434548      3.67508994
  H     -7.99992999     -1.40002102     -2.13991108
  C     -5.44049044     -1.50890702      2.17439187
  C     -4.78659391     -2.73578228      2.26470816
  C     -5.36069327     -3.80258633      2.93727203
  C     -6.60938204     -3.65857976      3.52439825
  C     -7.27604649     -2.44346679      3.43823100
  C     -6.69757355     -1.37436506      2.77398980
  H     -7.06170240     -4.49104990      4.05026614
  H     -8.25149772     -2.32546618      3.89560523
  H     -7.22251203     -0.42697136      2.72109198
  H     -4.01790645      2.67908797      5.27831530
  H     -4.83168603     -4.74648080      2.99948014
  H     -3.81340881     -2.85821714      1.80065317
  P      2.15527109     -4.11501899      1.04112553
  C      3.27920733     -4.16155339      2.47118255
  C      3.16719099     -5.07295802      3.52179540
  C      4.05754347     -5.02771658      4.58553493
  C      5.07111392     -4.07952340      4.61016628
  C      5.18920484     -3.16705363      3.56879847
  C      4.29428754     -3.19943089      2.51331116
  H      5.76927803     -4.05102338      5.43827904
  H      2.38530327     -5.82336014      3.50876282
  H      4.38350274     -2.47768530      1.70673826
  H      5.98092825     -2.42666514      3.57967639
  C      3.25217412     -4.59602264     -0.32876424
  C      3.19513253     -3.87736003     -1.52458616
  C      4.03042500     -4.19488285     -2.58486654
  C      4.94281615     -5.23388007     -2.45894365
  C      5.01617153     -5.95040898     -1.27140548
  C      4.17958231     -5.63594313     -0.21186462
  H      4.24982242     -6.19299197      0.71572330
  H      5.59947430     -5.48218389     -3.28441375
  H      5.73175170     -6.75788859     -1.16869249
  H      2.49102619     -3.05768110     -1.62076083
  H      3.96162984     -5.74268109      5.39443221
  C      1.01019027     -5.50756380      1.29184507
  C      0.02376166     -5.36297319      2.27419962
  C     -0.94099369     -6.33939537      2.45949438
  C     -0.94089475     -7.47546026      1.65858942
  C      0.03408015     -7.63137462      0.68332669
  C      1.00376686     -6.65665351      0.50026143
  H     -1.69498605     -8.24042971      1.80110866
  H      0.04077989     -8.51647195      0.05761452
  H      1.75978417     -6.79148151     -0.26414519
  H      3.96867204     -3.62838095     -3.50730549
  H     -1.69444391     -6.21327693      3.22844385
  H      0.02007585     -4.47753373      2.90161182
  P      1.04427402      1.48332325      3.70801759
  C      0.90601572     -0.02491446      4.71027010
  C      1.96903945     -0.92635062      4.78910105
  C      1.79712722     -2.16963593      5.37998336
  C      0.55644571     -2.54429284      5.87464383
  C     -0.51661878     -1.66481489      5.78765982
  C     -0.34586760     -0.41202438      5.20772739
  H      0.42343660     -3.51906241      6.32856660
  H      2.93699548     -0.65719909      4.38028589
  H     -1.17484758      0.28511294      5.17637788
  H     -1.48450254     -1.94249054      6.18680345
  C     -0.06735922      2.69127888      4.50508852
  C     -1.11520402      3.24634044      3.76914373
  C     -1.92546482      4.22968324      4.31556984
  C     -1.70810953      4.66181951      5.61627224
  C     -0.68226325      4.10228111      6.36736950
  C      0.13659243      3.12967363      5.81704840
  H      0.94219474      2.70998665      6.40857258
  H     -2.33727447      5.43328340      6.04425288
  H     -0.51307966      4.43174524      7.38589065
  H     -1.29934044      2.90422825      2.75627215
  H      2.63634707     -2.85247625      5.44589879
  C      2.70023268      2.15622499      4.04727747
  C      3.32078288      2.89958118      3.03901210
  C      4.55606824      3.49083890      3.25569459
  C      5.19576907      3.33471620      4.47764712
  C      4.59731363      2.58324613      5.48004040
  C      3.35656461      1.99994116      5.27096513
  H      6.16320201      3.79279677      4.64595801
  H      5.09654769      2.45295873      6.43307213
  H      2.89946217      1.41554598      6.06116638
  H     -2.72300737      4.66083323      3.72110600
  H      5.02332722      4.06742382      2.46571694
  H      2.83234875      3.00921513      2.07586987

