#B3LYP/6-31+G(d) OPT FREQ

246, Energy =   -372.45501234 au

0 1
 Au     -2.19518875      0.19156392      0.14563483
 Au      2.31878415      0.11837929     -1.54565905
 Au     -0.24007135     -0.04459953     -2.26762518
 Au     -1.92920163     -2.40020016      0.73085793
 Au     -0.17847428     -0.61693478      1.66800102
 Au      0.83323335      4.00372468      0.76852883
 Au      0.50073299      1.58120454     -0.31694973
 Au     -0.78482617      2.34490647      1.97074533
  P     -2.54395176     -4.67234387      0.53600769
  C     -1.56811895     -5.64349860     -0.65160307
  C     -0.60487376     -6.57110248     -0.25065791
  C      0.15960014     -7.24085691     -1.19550329
  C     -0.02580338     -6.99344774     -2.54944831
  C     -0.97510421     -6.06463157     -2.95829517
  C     -1.73112308     -5.38652028     -2.01642146
  H      0.56349835     -7.52772581     -3.28540423
  H     -0.46298094     -6.78176040      0.80322094
  H     -2.46764647     -4.65889208     -2.33692496
  H     -1.13306274     -5.87350198     -4.01370122
  C     -4.26835567     -4.91567579      0.01403066
  C     -5.20160749     -3.94802390      0.39671532
  C     -6.53522698     -4.06963869      0.03934474
  C     -6.95385966     -5.15954641     -0.71325139
  C     -6.03517930     -6.12470684     -1.10300866
  C     -4.70102308     -6.00748662     -0.74232849
  H     -3.99126076     -6.76327604     -1.05823503
  H     -7.99506684     -5.25454619     -0.99784493
  H     -6.35814722     -6.97618349     -1.69061947
  H     -4.87263142     -3.09008217      0.97442532
  H      0.89675586     -7.96660267     -0.87205914
  C     -2.41782899     -5.59970161      2.09417291
  C     -1.66568378     -5.06013078      3.13938006
  C     -1.55517812     -5.73135506      4.34740345
  C     -2.19442534     -6.95002420      4.52670825
  C     -2.94539539     -7.49575492      3.49379554
  C     -3.05956601     -6.82671750      2.28588248
  H     -2.11095769     -7.47263816      5.47226256
  H     -3.44773513     -8.44619364      3.63086950
  H     -3.65375204     -7.25577505      1.48684430
  H     -7.24676077     -3.31101379      0.34464847
  H     -0.97298659     -5.29770321      5.15220950
  H     -1.17083116     -4.10382997      3.00360247
  P      1.80850996     -1.14700298      2.90912348
  C      3.09450769      0.12087501      3.16760840
  C      4.07243722      0.01351739      4.16240724
  C      4.99693555      1.02897714      4.35381423
  C      4.96618366      2.16560011      3.55557655
  C      4.01365878      2.27393128      2.55181513
  C      3.08885052      1.25972628      2.36243143
  H      5.67912238      2.96579550      3.71620742
  H      4.10391271     -0.86356073      4.79822109
  H      2.34481333      1.35418044      1.58066032
  H      3.98309275      3.15485312      1.92184341
  C      2.66013556     -2.50891036      2.05035774
  C      1.87234041     -3.51858310      1.48927074
  C      2.45527884     -4.61759518      0.88033994
  C      3.83833038     -4.71326394      0.79909275
  C      4.63017055     -3.70553124      1.33066462
  C      4.04843461     -2.61293838      1.95627431
  H      4.68020803     -1.83645269      2.37218834
  H      4.29609393     -5.56841854      0.31609368
  H      5.71001826     -3.77017978      1.26298853
  H      0.79099938     -3.44075825      1.53251808
  H      5.74318058      0.93361201      5.13385014
  C      1.57800657     -1.82814341      4.58617542
  C      1.51943681     -0.95588365      5.67783527
  C      1.30212334     -1.43725151      6.95959706
  C      1.12918853     -2.79842876      7.17155978
  C      1.17641005     -3.67286389      6.09422893
  C      1.39208181     -3.19371231      4.81072444
  H      0.96395521     -3.17686254      8.17319955
  H      1.05585768     -4.73796705      6.25513765
  H      1.43202386     -3.89127043      3.98179343
  H      1.82716047     -5.39802932      0.46592885
  H      1.27153962     -0.74509657      7.79328771
  H      1.65604551      0.10809554      5.52316879
  P      4.34753141     -0.92976213     -2.14385675
  C      5.15923584     -0.19693814     -3.59531872
  C      6.45834069      0.31338266     -3.57937511
  C      6.98345752      0.92422152     -4.70925218
  C      6.22063034      1.03385977     -5.86344056
  C      4.92513874      0.53218468     -5.88769875
  C      4.39499780     -0.07254973     -4.76067958
  H      6.63385913      1.51135521     -6.74400114
  H      7.06200579      0.23000642     -2.68299648
  H      3.37969870     -0.45686040     -4.77921006
  H      4.32462731      0.61725447     -6.78626761
  C      4.07919782     -2.65809241     -2.64308288
  C      2.96737868     -3.32864263     -2.13038732
  C      2.72730262     -4.65280322     -2.46032711
  C      3.59651495     -5.32666790     -3.30842312
  C      4.69562813     -4.66432439     -3.83948965
  C      4.93417443     -3.33778091     -3.51501721
  H      5.78439890     -2.82293099     -3.94773370
  H      3.41296530     -6.36476269     -3.55978857
  H      5.36939164     -5.18254741     -4.51178087
  H      2.28712062     -2.80500270     -1.46640917
  H      7.99477197      1.31331952     -4.68650898
  C      5.64165245     -1.00868739     -0.86755100
  C      5.60714021     -0.06300728      0.15965991
  C      6.57142643     -0.06643634      1.15570104
  C      7.57749258     -1.02283007      1.14526693
  C      7.61677844     -1.97386601      0.13389573
  C      6.65749347     -1.96802047     -0.86726790
  H      8.32895204     -1.02866912      1.92596691
  H      8.40006528     -2.72277994      0.12205839
  H      6.69555367     -2.71669265     -1.65019374
  H      1.85756017     -5.16020962     -2.05914042
  H      6.53544553      0.67821354      1.94261577
  H      4.81378032      0.67716473      0.17888211
  P     -1.21775232     -1.01941537     -4.18917915
  C      0.07479424     -1.82311726     -5.17996240
  C      0.49825864     -3.11309695     -4.84679492
  C      1.54791890     -3.70596875     -5.52939903
  C      2.21296209     -3.00957334     -6.52949788
  C      1.81751416     -1.71808664     -6.85036816
  C      0.75603973     -1.12730677     -6.18146013
  H      3.03917021     -3.47247184     -7.05609204
  H     -0.00124940     -3.65426373     -4.04996088
  H      0.44987127     -0.12042212     -6.44185246
  H      2.33308028     -1.16887665     -7.62979224
  C     -1.89418817      0.25486872     -5.29813339
  C     -1.70116703      1.59798380     -4.96608883
  C     -2.21575312      2.60694090     -5.76562145
  C     -2.93339398      2.28604890     -6.90925117
  C     -3.13016229      0.95429555     -7.25199208
  C     -2.61666287     -0.05590298     -6.45366144
  H     -2.77999174     -1.09208788     -6.72743678
  H     -3.34108604      3.07254413     -7.53326410
  H     -3.68832404      0.70019956     -8.14555632
  H     -1.14567856      1.84967382     -4.06871911
  H      1.85326511     -4.71399544     -5.27379758
  C     -2.55386145     -2.25072809     -4.07483521
  C     -3.41858685     -2.17084290     -2.98189634
  C     -4.50930149     -3.01878148     -2.87758067
  C     -4.73790617     -3.97831284     -3.85491882
  C     -3.86932877     -4.08592509     -4.93288912
  C     -2.78709574     -3.22617387     -5.04800715
  H     -5.58883168     -4.64414224     -3.77075704
  H     -4.03855542     -4.83909114     -5.69357561
  H     -2.11739340     -3.31691360     -5.89535781
  H     -2.06063153      3.64381199     -5.48944356
  H     -5.18300407     -2.92530609     -2.03420546
  H     -3.23736449     -1.42863826     -2.21167786
  P     -3.97290571      1.48734276     -0.84306345
  C     -5.09477900      0.67252037     -2.03758348
  C     -6.21951829     -0.06350605     -1.66035099
  C     -6.99217275     -0.71171477     -2.61285601
  C     -6.65500749     -0.64132084     -3.95739876
  C     -5.53786596      0.08470783     -4.34590545
  C     -4.76327626      0.72988538     -3.39576112
  H     -7.26064241     -1.14902402     -4.69854495
  H     -6.51243308     -0.12422282     -0.61969218
  H     -3.89346263      1.29478647     -3.71033842
  H     -5.26302645      0.14765223     -5.39271801
  C     -3.56351808      3.01973174     -1.74206796
  C     -2.23516088      3.42112742     -1.86767557
  C     -1.89661430      4.56967346     -2.56602977
  C     -2.89066019      5.33567904     -3.15802812
  C     -4.21949651      4.94424864     -3.05010678
  C     -4.55666230      3.79652687     -2.35128164
  H     -5.59519611      3.49279659     -2.28334943
  H     -2.63181176      6.23453889     -3.70513081
  H     -4.99848591      5.53625989     -3.51615267
  H     -1.45419480      2.82250315     -1.41488650
  H     -7.86574662     -1.27161416     -2.29923098
  C     -5.06341045      2.00883065      0.51715072
  C     -5.57481171      1.01242092      1.35688358
  C     -6.39477519      1.33746465      2.42603144
  C     -6.69735827      2.66661265      2.68838105
  C     -6.16750562      3.66529929      1.88413337
  C     -5.35506539      3.34219034      0.80729124
  H     -7.33520530      2.92348517      3.52569093
  H     -6.38667392      4.70548323      2.09546808
  H     -4.94738195      4.13503320      0.19118711
  H     -0.85554831      4.86153542     -2.64820636
  H     -6.79216195      0.55132465      3.05759376
  H     -5.32622903     -0.02666579      1.16948250
  P      2.46235528      5.65407319      0.25002890
  C      1.94922032      7.29901048     -0.32432106
  C      2.23020237      8.47576955      0.37179246
  C      1.75195727      9.69276948     -0.09113050
  C      0.98501597      9.74975946     -1.24615420
  C      0.69050985      8.58294467     -1.94071880
  C      1.16266711      7.36538632     -1.48030203
  H      0.61280246     10.70221348     -1.60466800
  H      2.82783899      8.44078316      1.27549253
  H      0.92636806      6.45326285     -2.02010799
  H      0.08837117      8.62197538     -2.84138407
  C      3.57118960      5.04648122     -1.06342079
  C      3.85208408      3.67823044     -1.09484635
  C      4.69890393      3.14913234     -2.05365831
  C      5.27394483      3.97812764     -3.00735029
  C      4.99843987      5.33819686     -2.99143438
  C      4.15547897      5.87128714     -2.02670986
  H      3.94646415      6.93487320     -2.02667836
  H      5.93259252      3.56174323     -3.76120435
  H      5.44303018      5.99083245     -3.73386329
  H      3.39854626      3.02209427     -0.35974082
  H      1.98008994     10.60068616      0.45511155
  C      3.59905958      5.94739188      1.63977767
  C      3.18536948      5.58869557      2.92490228
  C      4.02699871      5.76194350      4.01276659
  C      5.29557424      6.29512206      3.82904525
  C      5.71790407      6.65593379      2.55584864
  C      4.87859703      6.48306914      1.46679923
  H      5.95589515      6.42940542      4.67775976
  H      6.70779559      7.07269107      2.41026254
  H      5.21771940      6.75995338      0.47469433
  H      4.90863687      2.08533336     -2.05803567
  H      3.69228099      5.47781121      5.00408977
  H      2.19543920      5.16722725      3.06759459
  P     -1.81363871      1.82061133      4.08191600
  C     -0.60373790      2.17832854      5.39481320
  C     -0.95219133      2.23042996      6.74792727
  C      0.00654136      2.50986227      7.70913519
  C      1.32326573      2.74917174      7.33709319
  C      1.68060620      2.70899507      5.99621182
  C      0.72268977      2.42465442      5.03434298
  H      2.06883009      2.97212075      8.09121692
  H     -1.97992538      2.05763658      7.04755325
  H      1.00551159      2.39309222      3.98763117
  H      2.70483755      2.90027138      5.69554542
  C     -2.34160068      0.10503350      4.40236634
  C     -3.33605435     -0.42136220      3.57316570
  C     -3.75208757     -1.73587136      3.70501877
  C     -3.17058848     -2.55290548      4.66663526
  C     -2.17682505     -2.04483496      5.49091116
  C     -1.76530175     -0.72619998      5.36244277
  H     -0.99400859     -0.34072324      6.01796709
  H     -3.49437108     -3.58132826      4.77327158
  H     -1.71742495     -2.67702278      6.24246393
  H     -3.78960204      0.21818729      2.82494264
  H     -0.27656873      2.54580632      8.75471683
  C     -3.25768509      2.81549702      4.56674702
  C     -3.33685484      4.12171744      4.07684248
  C     -4.38173098      4.95194647      4.44930459
  C     -5.36664765      4.48451370      5.30987460
  C     -5.30642996      3.18264927      5.78897449
  C     -4.25973635      2.35042687      5.42173861
  H     -6.18302314      5.13381994      5.60323293
  H     -6.07627426      2.81294014      6.45629868
  H     -4.22206039      1.33477358      5.79865545
  H     -4.53610059     -2.12006945      3.06253432
  H     -4.42768002      5.96524990      4.06747171
  H     -2.57007424      4.48554931      3.40057032

