#B3LYP/6-31+G(d) OPT FREQ

246, Energy =   -372.45251112 au

0 1
 Au      1.53331164      0.23188891      0.07415179
 Au     -0.73183524     -1.19191606     -0.05779709
 Au      0.86810128     -1.03522277     -2.45954359
 Au     -1.53654325      0.44221249     -2.80169232
 Au     -3.51174549      1.47442019     -1.54587989
 Au     -1.00392908      1.62061163     -0.16290885
 Au      1.86638199     -2.55058730     -0.56919814
 Au     -0.35602845      0.50816204      2.20486319
  P      0.57433182     -0.47022410     -4.77642442
  C      1.00197071      1.18678478     -5.38975583
  C      2.25842106      1.47287997     -5.92896516
  C      2.56370535      2.75757291     -6.35336049
  C      1.62501018      3.77394271     -6.23987105
  C      0.37938505      3.50501356     -5.68734562
  C      0.07379707      2.22410970     -5.26046394
  H      1.86422682      4.77544238     -6.57710659
  H      2.99690737      0.68540376     -6.02759541
  H     -0.89990122      2.01786616     -4.82902228
  H     -0.35563164      4.29557071     -5.58901751
  C     -1.03071069     -0.84852995     -5.53850266
  C     -1.84260385     -1.80161519     -4.91470941
  C     -3.07373033     -2.14041139     -5.45194049
  C     -3.51601538     -1.52649310     -6.61558436
  C     -2.71845923     -0.57958535     -7.24386082
  C     -1.48273083     -0.24216901     -6.71327007
  H     -0.86863227      0.49934179     -7.21072839
  H     -4.48169806     -1.78651235     -7.03279757
  H     -3.05882001     -0.10020297     -8.15429344
  H     -1.49466695     -2.28861353     -4.01019936
  H      3.53937590      2.96359475     -6.77794455
  C      1.74018105     -1.58635860     -5.62655509
  C      2.94595321     -1.89356691     -4.98990000
  C      3.85699559     -2.75794640     -5.57508232
  C      3.57045687     -3.33635148     -6.80488644
  C      2.37498521     -3.04054494     -7.44566899
  C      1.46456361     -2.17147972     -6.86365709
  H      4.27822232     -4.01763756     -7.26209021
  H      2.14762602     -3.48996975     -8.40529527
  H      0.53314537     -1.95003076     -7.37201860
  H     -3.69003104     -2.88186799     -4.95696621
  H      4.78858154     -2.98264061     -5.06841671
  H      3.16630518     -1.45107679     -4.02448963
  P     -0.08825396      0.15494327      4.54730640
  C      0.86842798      1.39083865      5.47701005
  C      0.25119420      2.52016357      6.02022328
  C      1.00738597      3.50441819      6.63901304
  C      2.38794551      3.37704061      6.72010292
  C      3.01252176      2.26367579      6.17235197
  C      2.26122844      1.28219629      5.54441521
  H      2.97584669      4.14200591      7.21323454
  H     -0.82718337      2.62299720      5.96906856
  H      2.75670772      0.41812233      5.11410882
  H      4.08932782      2.15720483      6.23572394
  C      0.70551183     -1.42597292      4.95565792
  C      0.79793907     -2.39223904      3.95205321
  C      1.35878926     -3.63182379      4.21124899
  C      1.85225278     -3.91756079      5.47709872
  C      1.78496968     -2.95899433      6.47919127
  C      1.21398118     -1.72177007      6.22426335
  H      1.17097554     -0.97671905      7.01040966
  H      2.29459642     -4.88599329      5.67913833
  H      2.17676380     -3.17645628      7.46592599
  H      0.42957493     -2.16611693      2.95716416
  H      0.51488126      4.36984602      7.06703701
  C     -1.71366642      0.10602006      5.36335723
  C     -2.71077985      0.93769604      4.84589935
  C     -3.98591999      0.93999459      5.38812222
  C     -4.28733806      0.09772710      6.45020889
  C     -3.30760708     -0.73823741      6.96861223
  C     -2.02830058     -0.73618947      6.43172501
  H     -5.28566167      0.09113157      6.87138691
  H     -3.53880318     -1.39772497      7.79700370
  H     -1.27305980     -1.39390271      6.84601402
  H      1.40866781     -4.37366647      3.42288255
  H     -4.74499292      1.59618095      4.97782401
  H     -2.48005861      1.58332273      4.00525655
  P     -2.25891647     -3.05428658     -0.02137542
  C     -1.39887789     -4.59042177     -0.48651452
  C     -1.27942700     -5.69377119      0.35816435
  C     -0.56096392     -6.81206723     -0.04381297
  C      0.05117403     -6.84162475     -1.28907475
  C     -0.05312518     -5.74468395     -2.13526816
  C     -0.76510923     -4.62718287     -1.73408014
  H      0.61116723     -7.71563601     -1.60038272
  H     -1.75323237     -5.68448456      1.33289217
  H     -0.84386997     -3.77244691     -2.39858898
  H      0.42318499     -5.75945227     -3.10870319
  C     -3.64594742     -2.96188471     -1.19884506
  C     -4.39159110     -1.78051447     -1.20826854
  C     -5.44486347     -1.61319438     -2.09110201
  C     -5.78135782     -2.63301850     -2.97107195
  C     -5.05617916     -3.81716541     -2.96234555
  C     -3.99151012     -3.98141487     -2.08714161
  H     -3.43030582     -4.90828906     -2.09609120
  H     -6.60735178     -2.50597028     -3.66071685
  H     -5.32211271     -4.62203841     -3.63768421
  H     -4.14446567     -0.99094549     -0.50684391
  H     -0.49042323     -7.66836695      0.61698167
  C     -3.07929173     -3.45028604      1.55500218
  C     -2.61811673     -2.85611026      2.72985940
  C     -3.19884285     -3.15792006      3.95202036
  C     -4.26161899     -4.04910264      4.01262045
  C     -4.74238590     -4.63295655      2.84731261
  C     -4.15646651     -4.33935978      1.62615481
  H     -4.71816951     -4.28453477      4.96674035
  H     -5.57588447     -5.32428479      2.89043819
  H     -4.53620887     -4.79926613      0.72060987
  H     -6.00499388     -0.68538073     -2.08928082
  H     -2.82135947     -2.69535472      4.85690372
  H     -1.79890199     -2.14674683      2.68237999
  P      3.62107496      1.28670497      0.55339881
  C      4.51422958      0.24911218      1.75817331
  C      5.88803058      0.35255894      1.99058164
  C      6.51269033     -0.48711287      2.89973069
  C      5.77879790     -1.43945040      3.59438985
  C      4.41190324     -1.54841864      3.37849100
  C      3.78842032     -0.71155526      2.46670436
  H      6.27087130     -2.09618895      4.30207480
  H      6.47490193      1.08838780      1.45341765
  H      2.72137302     -0.80656059      2.29651107
  H      3.83003726     -2.29057137      3.91347421
  C      3.60478727      2.93723073      1.31756154
  C      3.50893161      4.07703954      0.51327734
  C      3.41595220      5.33643998      1.08310828
  C      3.41386003      5.47705434      2.46430891
  C      3.49236232      4.35073692      3.27252379
  C      3.57761392      3.08883610      2.70564953
  H      3.63360096      2.21467454      3.34482001
  H      3.34463236      6.46204581      2.91055341
  H      3.48560685      4.45372170      4.35182057
  H      3.51674654      3.97437665     -0.56570839
  H      7.58022575     -0.39857388      3.06439973
  C      4.75276329      1.47735088     -0.86074494
  C      4.49151711      0.75023284     -2.02463773
  C      5.32156447      0.85205291     -3.13016561
  C      6.42754159      1.69013520     -3.09034709
  C      6.69270453      2.42806492     -1.94465520
  C      5.86291775      2.32721682     -0.83852063
  H      7.07773225      1.77279522     -3.95319645
  H      7.55012340      3.09007274     -1.91174152
  H      6.07262638      2.92174411      0.04313155
  H      3.34586675      6.21010320      0.44524886
  H      5.10141405      0.27869689     -4.02359410
  H      3.62244267      0.10188076     -2.06481321
  P     -5.27135747      2.15184510     -0.10989211
  C     -6.74448057      2.82568381     -0.92242818
  C     -7.98444825      2.94821782     -0.28409810
  C     -9.06475964      3.49858841     -0.95561645
  C     -8.92633645      3.93280613     -2.26753641
  C     -7.70378221      3.80882567     -2.91291825
  C     -6.62183864      3.25710194     -2.24509301
  H     -9.77338256      4.36391213     -2.78796434
  H     -8.10390881      2.60437715      0.73720549
  H     -5.66639174      3.15769510     -2.74970079
  H     -7.59234743      4.13988660     -3.93894913
  C     -4.83800233      3.36431739      1.18639476
  C     -3.60071972      3.24541918      1.82366989
  C     -3.23062875      4.11999494      2.83280391
  C     -4.08364620      5.14913516      3.20730861
  C     -5.30456229      5.29564810      2.56431181
  C     -5.68141834      4.41053336      1.56522027
  H     -6.63839237      4.54268969      1.07482891
  H     -3.79201508      5.83886982      3.99046556
  H     -5.97157050      6.10360990      2.84151582
  H     -2.91075615      2.46658554      1.51578461
  H    -10.01975254      3.58872920     -0.45120434
  C     -5.87000848      0.72711803      0.85897081
  C     -6.97563406     -0.01913574      0.44170018
  C     -7.34976400     -1.16826213      1.12224056
  C     -6.62771277     -1.59255597      2.22853162
  C     -5.52526955     -0.86200027      2.65016690
  C     -5.14267028      0.27936800      1.96523692
  H     -6.91992242     -2.49081468      2.75979133
  H     -4.95502228     -1.18181264      3.51510658
  H     -4.27168770      0.82988113      2.30146357
  H     -2.26809784      4.00557370      3.31787363
  H     -8.21080567     -1.73332928      0.78465708
  H     -7.55150704      0.30134633     -0.41886900
  P      3.47694882     -4.24205797      0.02236291
  C      5.18067326     -3.62006719     -0.14262495
  C      6.28417489     -4.47793994     -0.07917192
  C      7.56719633     -3.98273989     -0.24373797
  C      7.76908778     -2.62915588     -0.48311373
  C      6.68136890     -1.77162271     -0.55945398
  C      5.39700410     -2.26534635     -0.38981924
  H      8.77378295     -2.24488894     -0.61422152
  H      6.13338509     -5.53755693      0.09566173
  H      4.54724962     -1.59363358     -0.44708271
  H      6.83139452     -0.71530284     -0.75136171
  C      3.44492199     -5.49121357     -1.30381125
  C      3.20073026     -5.02346665     -2.59864298
  C      3.18481422     -5.89192363     -3.67746729
  C      3.40717323     -7.24853553     -3.47708444
  C      3.65051020     -7.72534666     -2.19667929
  C      3.67510824     -6.85485298     -1.11620784
  H      3.87204310     -7.24217371     -0.12338035
  H      3.39070021     -7.93151795     -4.31811151
  H      3.82775961     -8.78235043     -2.03548896
  H      3.02065811     -3.96485067     -2.75794980
  H      8.41420271     -4.65664896     -0.18925938
  C      3.49388024     -5.20318564      1.56751975
  C      4.46026999     -5.01267695      2.55773102
  C      4.42253583     -5.75519667      3.72845392
  C      3.41601472     -6.68954031      3.93272339
  C      2.42969116     -6.86351675      2.96950822
  C      2.46177874     -6.11912485      1.80058938
  H      3.39877449     -7.28088519      4.84052323
  H      1.63426286     -7.58259954      3.12759876
  H      1.68639045     -6.25363670      1.05370213
  H      2.99782143     -5.50848277     -4.67435950
  H      5.18735713     -5.60641983      4.48195014
  H      5.25348695     -4.28900342      2.40814659
  P     -0.74002759      4.02296665     -0.57516493
  C     -2.15251641      4.84120828     -1.37536931
  C     -3.12443459      5.53339602     -0.64915555
  C     -4.26241679      6.01521187     -1.27787392
  C     -4.45367031      5.80450437     -2.63626092
  C     -3.50115035      5.10513477     -3.36712090
  C     -2.36342867      4.62197449     -2.74130717
  H     -5.34387636      6.18231963     -3.12497940
  H     -2.99102011      5.69657069      0.41392464
  H     -1.62186679      4.07716228     -3.31585902
  H     -3.64482511      4.93530567     -4.42791448
  C      0.64709675      4.36121752     -1.71506552
  C      1.42097118      3.29106865     -2.16514470
  C      2.51385414      3.49888433     -2.99199683
  C      2.84722717      4.78679762     -3.38725929
  C      2.07418024      5.85986414     -2.96328962
  C      0.98232973      5.65108973     -2.13583930
  H      0.38578159      6.49713226     -1.81552904
  H      3.70356884      4.95201346     -4.03030528
  H      2.32357523      6.86638503     -3.27829824
  H      1.16366550      2.28236150     -1.86217508
  H     -5.00502456      6.55364713     -0.70024233
  C     -0.36337024      5.03996105      0.89251587
  C      0.04262584      4.38547329      2.05738182
  C      0.31212855      5.09362652      3.21795697
  C      0.18771419      6.47607974      3.22989526
  C     -0.20182311      7.14202531      2.07557293
  C     -0.47778529      6.43328199      0.91650852
  H      0.39269620      7.03283213      4.13662979
  H     -0.29799572      8.22152097      2.07802511
  H     -0.79152860      6.96872544      0.02811500
  H      3.10094817      2.65308938     -3.33123172
  H      0.61816381      4.56307289      4.11264405
  H      0.14353399      3.30499752      2.05635633

