246
Energy =   -372.45877288 au
 Au     -1.01996288     -0.79670090      1.80346409
 Au      1.37467126     -1.61131100     -2.12125907
 Au     -0.68442230      1.91826683      1.43817780
 Au     -2.12490983      0.60230408     -0.30330129
 Au     -1.76165335      3.49423184     -0.81945495
 Au      0.64109846      0.08413155     -0.26580183
 Au     -3.44087568      2.88991408      1.00127926
 Au      3.17342346     -0.47626722     -0.49769526
  P      1.43429027     -3.34577549     -3.70530270
  C     -0.15825624     -4.05351413     -4.22381084
  C     -0.44793683     -4.42866129     -5.53664150
  C     -1.68224867     -4.97665243     -5.85320323
  C     -2.64105081     -5.15753749     -4.86577005
  C     -2.36648169     -4.77854866     -3.55839613
  C     -1.13796875     -4.22288436     -3.24036603
  H     -3.60317168     -5.58965474     -5.11431329
  H      0.29318818     -4.29221039     -6.31564489
  H     -0.92967071     -3.91753418     -2.21933880
  H     -3.11258155     -4.91405392     -2.78399568
  C      2.38133055     -4.77660895     -3.09663019
  C      3.71040688     -4.55799990     -2.72076614
  C      4.48359858     -5.59385629     -2.22432242
  C      3.93543200     -6.86196389     -2.07855477
  C      2.61523978     -7.08874607     -2.44026222
  C      1.84050449     -6.05489525     -2.94797041
  H      0.81539816     -6.24742230     -3.24246737
  H      4.53842903     -7.67187566     -1.68536006
  H      2.18381484     -8.07720286     -2.33292748
  H      4.14134980     -3.56781559     -2.82639476
  H     -1.89321879     -5.26711664     -6.87576355
  C      2.31661704     -2.90041304     -5.22787970
  C      2.47099907     -1.54825638     -5.53721618
  C      3.14255015     -1.15555712     -6.68470478
  C      3.67566960     -2.11455638     -7.53610607
  C      3.54022365     -3.46298766     -7.23213786
  C      2.86788162     -3.85705176     -6.08589794
  H      4.20211894     -1.81065570     -8.43313458
  H      3.96303987     -4.21274088     -7.89062277
  H      2.77852501     -4.91094014     -5.84766573
  H      5.51504008     -5.41004283     -1.94614529
  H      3.25067602     -0.10133361     -6.91250211
  H      2.06475797     -0.80201247     -4.86330765
  P      5.43428767     -1.13781272     -0.26295349
  C      6.61705594     -0.15932766      0.70893059
  C      6.82071073     -0.40959416      2.06926551
  C      7.64270268      0.41466129      2.82224159
  C      8.26295551      1.50797785      2.23284786
  C      8.05678479      1.77574353      0.88551502
  C      7.23648124      0.95321354      0.12974118
  H      8.90683116      2.15016691      2.82195121
  H      6.34008729     -1.26141083      2.53671205
  H      7.08025696      1.16944841     -0.92162291
  H      8.53864184      2.62777451      0.42018397
  C      6.24286653     -1.33269911     -1.88317195
  C      5.45334870     -1.32099667     -3.03511278
  C      6.02091217     -1.50133013     -4.28688417
  C      7.38967219     -1.69668689     -4.40526873
  C      8.18676658     -1.70670534     -3.26822393
  C      7.62077616     -1.52632650     -2.01612860
  H      8.25383130     -1.53036041     -1.13612262
  H      7.83559345     -1.83659252     -5.38291032
  H      9.25677657     -1.85459036     -3.35622716
  H      4.38423470     -1.15892471     -2.94734213
  H      7.79836844      0.20148189      3.87346256
  C      5.51040628     -2.82120884      0.42748846
  C      4.32429982     -3.55009006      0.52866796
  C      4.32680013     -4.85420681      0.99783526
  C      5.52100062     -5.44967069      1.37973791
  C      6.70857095     -4.73495716      1.28817919
  C      6.70689817     -3.43300362      0.81340948
  H      5.52672272     -6.46885682      1.74767165
  H      7.64319718     -5.19588983      1.58570315
  H      7.64099409     -2.88759362      0.74255997
  H      5.39240475     -1.48450498     -5.17005387
  H      3.39455805     -5.40379220      1.06408032
  H      3.38785867     -3.08776556      0.23521161
  P     -0.38835405     -2.71624516      3.04249331
  C     -0.62127737     -4.24393659      2.09185628
  C     -1.66663557     -5.13652204      2.33317278
  C     -1.86533628     -6.22654069      1.49669726
  C     -1.03320068     -6.43123682      0.40404902
  C     -0.00181307     -5.53734373      0.14408252
  C      0.19778581     -4.44862590      0.97553627
  H     -1.18972114     -7.28348077     -0.24667509
  H     -2.32617973     -4.98089417      3.17957331
  H      0.99912690     -3.74760522      0.76312928
  H      0.65089094     -5.69023808     -0.70808360
  C     -1.08499348     -2.98304232      4.69934626
  C     -1.76452962     -1.91867814      5.29606125
  C     -2.25449790     -2.02874076      6.58841194
  C     -2.08004450     -3.20970270      7.29661868
  C     -1.41150338     -4.27679544      6.71052314
  C     -0.90996613     -4.16584314      5.42335807
  H     -0.37824927     -4.99988983      4.97952718
  H     -2.46480304     -3.29911889      8.30562164
  H     -1.27460068     -5.20005120      7.26136862
  H     -1.91453798     -1.00122525      4.73629965
  H     -2.67148055     -6.92084688      1.70335387
  C      1.40659347     -2.69197222      3.36252460
  C      2.13427045     -3.85254703      3.63893244
  C      3.48650959     -3.77865256      3.93366598
  C      4.13219529     -2.54955407      3.95442176
  C      3.42251691     -1.39124207      3.66980854
  C      2.06933032     -1.46372586      3.37803608
  H      5.18768075     -2.49689803      4.19439356
  H      3.92071096     -0.42838014      3.68105053
  H      1.51477157     -0.55678113      3.16318455
  H     -2.77569785     -1.19219634      7.03950844
  H      4.03924308     -4.68552573      4.14965759
  H      1.64081490     -4.81766688      3.62206202
  P      0.47123756      3.36899729      2.91315373
  C     -0.22704073      5.03896051      2.85331759
  C     -1.13136524      5.49782779      3.81330723
  C     -1.77877608      6.71248938      3.64407517
  C     -1.53938702      7.48061760      2.51331918
  C     -0.65406388      7.02657723      1.54377999
  C     -0.01104958      5.81086344      1.70566645
  H     -2.04697773      8.42898506      2.38261389
  H     -1.33454361      4.89950549      4.69455226
  H      0.66310643      5.45101536      0.93460714
  H     -0.46939049      7.61677036      0.65326067
  C      2.25866262      3.54470889      2.60766891
  C      2.96529423      2.37144668      2.33168686
  C      4.33913940      2.39634252      2.16056445
  C      5.02683339      3.60095061      2.24544365
  C      4.33272822      4.77422336      2.50578910
  C      2.95823535      4.74882939      2.69444646
  H      2.42905713      5.66928898      2.91228175
  H      6.10189316      3.62019258      2.10848184
  H      4.86454378      5.71629787      2.57142432
  H      2.42932539      1.43110326      2.25290202
  H     -2.47748994      7.05597523      4.39837259
  C      0.47461092      2.86508857      4.66173044
  C      0.06847807      1.57205151      4.99391243
  C      0.11703881      1.12948473      6.30692129
  C      0.56954154      1.97917439      7.30718947
  C      0.98069588      3.26745519      6.98809461
  C      0.94119686      3.70794604      5.67481853
  H      0.60661154      1.63638762      8.33446190
  H      1.33956243      3.93069789      7.76643663
  H      1.27646297      4.70986549      5.43077741
  H      4.87250040      1.47402647      1.96275903
  H     -0.19829625      0.12043756      6.54769849
  H     -0.28695716      0.90736672      4.21312859
  P     -3.51941691     -0.31745465     -1.99601768
  C     -2.67978862     -0.66112113     -3.57374113
  C     -3.20972972     -1.52422069     -4.53668296
  C     -2.54900522     -1.72441886     -5.73863665
  C     -1.35274265     -1.06867789     -5.99753385
  C     -0.81437587     -0.21517318     -5.04492992
  C     -1.46838722     -0.02012204     -3.83843067
  H     -0.83948224     -1.22432015     -6.93920768
  H     -4.14173558     -2.04274169     -4.34148478
  H     -1.04338172      0.64781919     -3.09686401
  H      0.11172764      0.31058244     -5.24535208
  C     -4.92431791      0.75023573     -2.43340306
  C     -5.69861685      1.25265712     -1.38164627
  C     -6.74100396      2.12986588     -1.62653710
  C     -7.02023737      2.52964259     -2.92735900
  C     -6.25798714      2.04063053     -3.97839290
  C     -5.21672251      1.15617877     -3.73611945
  H     -4.63100905      0.77704253     -4.56555034
  H     -7.83039059      3.22301171     -3.11968600
  H     -6.47187346      2.34909146     -4.99516963
  H     -5.47933597      0.94883988     -0.36305445
  H     -2.97052108     -2.39606609     -6.47737781
  C     -4.28067496     -1.91118704     -1.55755745
  C     -3.50415716     -2.83128547     -0.84797857
  C     -4.02669470     -4.06303797     -0.48409737
  C     -5.33672012     -4.38730844     -0.81566309
  C     -6.11854280     -3.47689461     -1.51240526
  C     -5.59633788     -2.24651208     -1.88264492
  H     -5.74640892     -5.34773000     -0.52612734
  H     -7.14183489     -3.72425370     -1.76967323
  H     -6.21551416     -1.53940876     -2.42252747
  H     -7.33178138      2.50744882     -0.79951270
  H     -3.41248039     -4.76827401      0.06389255
  H     -2.48310799     -2.57748197     -0.58015704
  P     -0.10922790      3.98291120     -2.48610506
  C      1.50411138      3.12813913     -2.42667532
  C      1.95889142      2.26969329     -3.42899164
  C      3.21255253      1.68281845     -3.34269579
  C      4.02827207      1.93445804     -2.24729309
  C      3.57036434      2.75527556     -1.22212334
  C      2.31653335      3.33857695     -1.30721342
  H      5.02354958      1.50961447     -2.20039836
  H      1.33984099      2.07448872     -4.29693720
  H      1.96886095      3.98386066     -0.50670617
  H      4.20140365      2.95109280     -0.36361804
  C      0.36624464      5.73940261     -2.47380806
  C     -0.62094036      6.66103057     -2.11365748
  C     -0.34982543      8.01987785     -2.10154645
  C      0.91686951      8.47666623     -2.44184505
  C      1.90678197      7.57015156     -2.79503567
  C      1.63636591      6.21011676     -2.81432466
  H      2.41866601      5.51247353     -3.09046069
  H      1.13186192      9.53865493     -2.43057278
  H      2.89680470      7.92264622     -3.06051958
  H     -1.60879049      6.30373661     -1.84171205
  H      3.56280805      1.04094928     -4.14268943
  C     -0.68875940      3.72658369     -4.19240823
  C     -1.93065346      3.12282204     -4.39577874
  C     -2.40863949      2.90519062     -5.67899687
  C     -1.65270866      3.29152786     -6.77636236
  C     -0.42222759      3.90777393     -6.58680412
  C      0.05655964      4.12869100     -5.30561957
  H     -2.02459681      3.11935022     -7.77953603
  H      0.16562759      4.22114973     -7.44186333
  H      1.01271577      4.62083575     -5.16500066
  H     -1.12818494      8.72284155     -1.82822264
  H     -3.37352337      2.43256136     -5.82194203
  H     -2.52525662      2.82261960     -3.53902264
  P     -4.85237708      2.16200862      2.79143906
  C     -6.62403028      2.48635670      2.54075625
  C     -7.64069354      1.69886625      3.08512670
  C     -8.97028756      2.00498893      2.83943452
  C     -9.30348673      3.09804505      2.05105753
  C     -8.30115334      3.88628016      1.50142588
  C     -6.97055742      3.57897873      1.73982641
  H    -10.34406880      3.33402040      1.86213020
  H     -7.39268214      0.84221663      3.70147909
  H     -6.18671310      4.18903731      1.30298932
  H     -8.55486887      4.74062471      0.88466044
  C     -4.44808828      3.00070126      4.35523332
  C     -3.30430633      2.60808422      5.05822127
  C     -2.90946091      3.29009378      6.19817540
  C     -3.63684324      4.38821186      6.64042125
  C     -4.76178917      4.79803735      5.93879133
  C     -5.16570862      4.11102232      4.80384957
  H     -6.04823367      4.43648599      4.26484158
  H     -3.32487247      4.92235710      7.53011302
  H     -5.33120380      5.65570493      6.27761326
  H     -2.72410012      1.75862146      4.71099382
  H     -9.75030121      1.38582202      3.26719057
  C     -4.77783957      0.39167391      3.23156524
  C     -4.45621179     -0.53437355      2.23785965
  C     -4.39186292     -1.89077066      2.51799797
  C     -4.66545538     -2.34652179      3.80021860
  C     -4.99924998     -1.43880295      4.79610825
  C     -5.04930016     -0.08054443      4.51870135
  H     -4.61803886     -3.40629850      4.02230670
  H     -5.21964164     -1.78979068      5.79755035
  H     -5.29836855      0.61805254      5.30907658
  H     -2.03284623      2.96221100      6.74512439
  H     -4.13775062     -2.59158838      1.73117811
  H     -4.26363826     -0.18855325      1.22814805
