#B3LYP/6-31+G(d) OPT FREQ

246, Energy =   -372.43512031 au

0 1
 Au      0.88241558     -3.57141131     -0.84122455
 Au      0.80636662     -0.82265828     -0.99485762
 Au     -1.49701509     -0.89319407      2.69041261
 Au      2.73061371     -2.36172120     -2.21739479
 Au      0.01058948      1.24962072     -2.37548890
 Au     -1.59145956     -2.06097500      0.30800829
 Au      0.59012167     -2.37586805      1.84649330
 Au     -0.85819429      0.97682394      0.24935244
  P     -0.38294129      2.73367252     -4.18274931
  C     -2.08348965      3.29526589     -4.50019643
  C     -2.49733532      4.61901380     -4.35204097
  C     -3.82702003      4.96273365     -4.54715266
  C     -4.75986436      3.99153327     -4.88085894
  C     -4.35760000      2.67081989     -5.03369007
  C     -3.03004131      2.32551286     -4.84592936
  H     -5.79895674      4.26278794     -5.02535343
  H     -1.77756732      5.38465064     -4.08681502
  H     -2.71474694      1.29534786     -4.97389584
  H     -5.08036136      1.90719091     -5.29730646
  C      0.09902886      2.00834254     -5.77983908
  C      0.92049643      0.87902579     -5.77145971
  C      1.32731686      0.28783840     -6.95709164
  C      0.90902175      0.81315841     -8.17190944
  C      0.07468265      1.92290603     -8.19370027
  C     -0.33278961      2.51572738     -7.00856257
  H     -0.99988633      3.36970342     -7.03715857
  H      1.22623707      0.35355856     -9.10057276
  H     -0.26396496      2.32849617     -9.13994473
  H      1.24746656      0.46837433     -4.82236002
  H     -4.13457715      5.99584776     -4.43382450
  C      0.58524932      4.26540005     -4.01124340
  C      1.03800277      4.60387688     -2.73273789
  C      1.78204737      5.75399224     -2.52315080
  C      2.09035988      6.58258850     -3.59337370
  C      1.65329717      6.25407165     -4.86975650
  C      0.90662756      5.10500038     -5.08049744
  H      2.67495417      7.48088859     -3.43391061
  H      1.89633756      6.89629561     -5.70831120
  H      0.57719194      4.85676109     -6.08269135
  H      1.97145949     -0.58419246     -6.93048777
  H      2.12656552      5.99797521     -1.52444780
  H      0.80830891      3.95096481     -1.89743742
  P      4.53482780     -1.61288234     -3.54764196
  C      6.02582961     -1.19704052     -2.59094382
  C      7.29792587     -1.11466522     -3.16341167
  C      8.38636356     -0.73359460     -2.39432110
  C      8.22012401     -0.41716822     -1.05238632
  C      6.95695054     -0.47396249     -0.48000125
  C      5.86784579     -0.85845194     -1.24600961
  H      9.07404727     -0.12124604     -0.45447155
  H      7.43561261     -1.34537151     -4.21371408
  H      4.87797228     -0.89507784     -0.80390391
  H      6.81755828     -0.21961621      0.56476814
  C      4.28583757     -0.02504383     -4.40910493
  C      3.58986592      0.96846929     -3.71652914
  C      3.45351506      2.24032085     -4.24975296
  C      3.99269191      2.53247192     -5.49528966
  C      4.67793874      1.55016986     -6.19641634
  C      4.83560644      0.28253112     -5.65468230
  H      5.39198846     -0.46844290     -6.20341864
  H      3.87672010      3.52422512     -5.91670468
  H      5.10213257      1.77263783     -7.16862092
  H      3.15433074      0.73829733     -2.74978254
  H      9.36958229     -0.67943644     -2.84699715
  C      5.03926066     -2.80817269     -4.81191491
  C      6.04962785     -3.74345478     -4.57060200
  C      6.34060416     -4.72152851     -5.50900930
  C      5.61921292     -4.79069121     -6.69280490
  C      4.59359455     -3.88519609     -6.93086200
  C      4.29791653     -2.90774392     -5.99457411
  H      5.85017675     -5.55436269     -7.42594881
  H      4.01842103     -3.94240910     -7.84778302
  H      3.48427311     -2.21389517     -6.17955067
  H      2.91834650      3.00085999     -3.69399257
  H      7.13354158     -5.43378174     -5.31237307
  H      6.61290017     -3.70491593     -3.64485183
  P      0.60623146      2.62573300      1.62326064
  C     -0.19182450      4.25859678      1.80158856
  C     -1.46931593      4.29652529      2.37112932
  C     -2.15330523      5.49404738      2.50039755
  C     -1.58653787      6.67247281      2.03219630
  C     -0.33316007      6.64409284      1.43774893
  C      0.36120938      5.44828738      1.32389696
  H     -2.12438492      7.60843796      2.12508296
  H     -1.92949572      3.37435849      2.71119996
  H      1.34074364      5.44425118      0.86012026
  H      0.11134592      7.55842993      1.06194163
  C      2.29663212      3.06442864      1.05251718
  C      2.75553565      2.63961483     -0.19361087
  C      4.03950475      2.94451808     -0.62240933
  C      4.88636970      3.68559315      0.18910903
  C      4.44376675      4.11594555      1.43335008
  C      3.16421245      3.80533620      1.86372675
  H      2.83577645      4.13906265      2.84142869
  H      5.88927214      3.92365830     -0.14497163
  H      5.09981282      4.69365542      2.07389441
  H      2.10374116      2.05725206     -0.83451007
  H     -3.13423964      5.50835933      2.96148142
  C      1.01436946      2.17495275      3.35097614
  C      1.47282459      0.87601532      3.58047768
  C      1.89392941      0.48293204      4.83983198
  C      1.85596107      1.38337860      5.89573980
  C      1.38333042      2.67107905      5.68702720
  C      0.96746036      3.06830654      4.42388795
  H      2.19027724      1.07907446      6.88043802
  H      1.34462000      3.37600297      6.50935231
  H      0.61045348      4.08013656      4.27119712
  H      4.38115755      2.60071532     -1.59169785
  H      2.25580020     -0.52685165      4.99631254
  H      1.52114530      0.17488569      2.75371342
  P     -2.30555475     -0.42479832      4.90973905
  C     -3.53050862     -1.70765941      5.31517763
  C     -3.87543197     -2.01734875      6.63495641
  C     -4.80841862     -3.00660956      6.90257559
  C     -5.40567097     -3.70559890      5.86170385
  C     -5.06003893     -3.41862277      4.54842343
  C     -4.12773447     -2.42862675      4.27961428
  H     -6.13414219     -4.47899267      6.07482225
  H     -3.40188463     -1.48822956      7.45454537
  H     -3.85030729     -2.21396444      3.25298280
  H     -5.51320087     -3.96786357      3.73092972
  C     -3.04079266      1.14541949      5.47315164
  C     -2.32158978      2.31389022      5.20651271
  C     -2.79432054      3.54805098      5.62164342
  C     -3.99918143      3.63379930      6.30694927
  C     -4.72390529      2.48072892      6.57396078
  C     -4.25321354      1.24380019      6.15699404
  H     -4.83280851      0.35291776      6.36829508
  H     -4.37086647      4.59756197      6.63416158
  H     -5.66344323      2.54162390      7.11077611
  H     -1.37540959      2.24487503      4.68179812
  H     -5.06802597     -3.23521585      7.92967737
  C     -1.02533268     -0.74522579      6.16796328
  C     -0.15837999     -1.81803357      5.94553337
  C      0.82115485     -2.14309895      6.86947742
  C      0.95145405     -1.39608352      8.03333557
  C      0.09966056     -0.32454893      8.26340090
  C     -0.88231804      0.00121769      7.33872205
  H      1.71642458     -1.64879593      8.75792066
  H      0.19635046      0.26169921      9.16979495
  H     -1.53861822      0.84190945      7.52998563
  H     -2.21906802      4.44289098      5.41275285
  H      1.48352811     -2.98038323      6.68039777
  H     -0.25844569     -2.40066407      5.03554385
  P     -3.23156661      1.73508936      0.08473563
  C     -4.26420471      0.85415478     -1.14685942
  C     -5.65084439      0.72208421     -1.02975706
  C     -6.38361816      0.07442559     -2.01233450
  C     -5.74877419     -0.45389507     -3.12735553
  C     -4.37228355     -0.33183569     -3.25516840
  C     -3.64103534      0.31872547     -2.27412213
  H     -6.32277618     -0.96384737     -3.89175454
  H     -6.16537495      1.12338130     -0.16497484
  H     -2.56678360      0.41999647     -2.38384980
  H     -3.86604411     -0.74785968     -4.11842789
  C     -3.32945246      3.44695876     -0.54043335
  C     -2.14814419      4.13882640     -0.80449681
  C     -2.17371117      5.45655385     -1.23384311
  C     -3.38935490      6.10040826     -1.41604303
  C     -4.57521846      5.41215880     -1.19198575
  C     -4.54902478      4.09543746     -0.76120231
  H     -5.48088631      3.56702939     -0.59361293
  H     -3.41389298      7.13407240     -1.74012231
  H     -5.52705409      5.90536879     -1.35112193
  H     -1.19743690      3.63958232     -0.65850038
  H     -7.45784879     -0.01952160     -1.90328713
  C     -4.33854607      1.72006039      1.53651391
  C     -4.75904631      0.47589934      2.01985031
  C     -5.64107686      0.38982897      3.08389015
  C     -6.10098209      1.54729237      3.69887125
  C     -5.65537190      2.78503646      3.25893181
  C     -4.78009870      2.87293264      2.18640258
  H     -6.80225563      1.48234607      4.52204335
  H     -5.99691027      3.69065101      3.74675685
  H     -4.45829070      3.84757457      1.83963911
  H     -1.24232298      5.98013419     -1.41763673
  H     -5.97619520     -0.58117777      3.43002551
  H     -4.41220262     -0.42943180      1.53222947
  P      2.72962649     -3.19101602      2.47103526
  C      3.84530913     -1.80190350      2.81617308
  C      4.58525094     -1.66174335      3.99106513
  C      5.35119833     -0.52457644      4.20655377
  C      5.38591640      0.48717014      3.25780031
  C      4.64193377      0.36552838      2.09080252
  C      3.86901211     -0.76361075      1.87727628
  H      5.98321800      1.37495599      3.42891684
  H      4.56198793     -2.44166708      4.74318622
  H      3.26732642     -0.84329771      0.97701565
  H      4.65276131      1.15748160      1.35177951
  C      3.51444217     -4.10833510      1.10750001
  C      2.88110760     -5.28433761      0.68440945
  C      3.35997061     -5.99106989     -0.40833108
  C      4.46608322     -5.52471093     -1.10767012
  C      5.10020240     -4.36116388     -0.69569228
  C      4.63220769     -3.65850512      0.40762270
  H      5.14833665     -2.76135766      0.72674346
  H      4.83459511     -6.06859263     -1.96927401
  H      5.97120801     -3.99711370     -1.22847395
  H      2.02142413     -5.65549115      1.23162343
  H      5.92075367     -0.42944244      5.12368353
  C      2.85721563     -4.35792616      3.85373452
  C      1.70005729     -4.71873394      4.54606285
  C      1.75910896     -5.62539096      5.59382699
  C      2.97613129     -6.18454809      5.95808070
  C      4.13110910     -5.84595937      5.26455802
  C      4.07570678     -4.94351472      4.21473386
  H      3.02404012     -6.89209112      6.77735399
  H      5.08002868     -6.29144135      5.53951204
  H      4.97681727     -4.69786618      3.66388034
  H      2.86440735     -6.90418230     -0.71655312
  H      0.85268914     -5.89842046      6.12151152
  H      0.74768720     -4.29142696      4.25069853
  P     -2.67900960     -3.32541701     -1.41234392
  C     -2.23593984     -3.24635481     -3.17777348
  C     -2.53421046     -4.28153227     -4.07073470
  C     -2.17489544     -4.18119919     -5.40598837
  C     -1.50882031     -3.05487251     -5.87063088
  C     -1.19234971     -2.02925157     -4.99125996
  C     -1.55152349     -2.12830765     -3.65631427
  H     -1.22992779     -2.98007705     -6.91516592
  H     -3.03553420     -5.17492112     -3.71665314
  H     -1.28982895     -1.32991968     -2.97148787
  H     -0.66313542     -1.15056940     -5.34249286
  C     -4.49647245     -3.30220681     -1.31154549
  C     -5.05537807     -2.91617029     -0.08973314
  C     -6.42927174     -2.87596330      0.08267300
  C     -7.26852758     -3.21534685     -0.96991701
  C     -6.72589105     -3.58902644     -2.19202172
  C     -5.35065488     -3.63010954     -2.36575304
  H     -4.94427714     -3.91289400     -3.32939449
  H     -8.34373914     -3.18332179     -0.83983504
  H     -7.37702705     -3.84931604     -3.01837789
  H     -4.40043273     -2.63919968      0.73006418
  H     -2.41369744     -4.99012833     -6.08654122
  C     -2.21661622     -5.02461511     -0.94722944
  C     -1.10893039     -5.64838993     -1.53297109
  C     -0.63393557     -6.85459849     -1.03721898
  C     -1.25556138     -7.45517354      0.04870427
  C     -2.36009100     -6.84895013      0.63165416
  C     -2.83213413     -5.63949091      0.14410321
  H     -0.88310854     -8.39583246      0.43660710
  H     -2.85429545     -7.31612472      1.47565468
  H     -3.68779581     -5.16846958      0.61558609
  H     -6.84364873     -2.57456651      1.03801714
  H      0.22031997     -7.32682592     -1.50845323
  H     -0.64651220     -5.21517569     -2.41179723

