#B3LYP/6-31+G(d) OPT FREQ

246, Energy =   -372.45166247 au

0 1
 Au      0.02241596     -0.69014972      2.39462983
 Au     -1.91838158     -2.15633481      3.54343019
 Au     -1.41115979     -0.92225557     -2.05264837
 Au      0.77600397     -1.25086091     -0.32039039
 Au     -0.71092973      0.88809109      0.06797110
 Au      1.91837767      0.77671677      1.35559309
 Au     -0.39752926     -0.73087444      5.04499900
 Au      0.76527783      0.63350987     -2.37830905
  P      3.91150666      1.94112159      0.76695487
  C      3.79307226      3.75734807      0.78835831
  C      4.86698589      4.59466807      1.09727235
  C      4.70494332      5.97215190      1.08708913
  C      3.47194142      6.53041851      0.77651509
  C      2.39360028      5.70597935      0.48116428
  C      2.55487182      4.32944273      0.48821824
  H      3.34816978      7.60687508      0.77331387
  H      5.82899202      4.16749902      1.35643943
  H      1.71151910      3.68202218      0.27222356
  H      1.42463185      6.13403062      0.25060041
  C      4.57114743      1.57561408     -0.89465285
  C      4.06228359      0.48201222     -1.59702741
  C      4.52879826      0.16355859     -2.86288281
  C      5.52072914      0.93743810     -3.44814995
  C      6.03649904      2.02920203     -2.76247969
  C      5.56373063      2.35159336     -1.49962858
  H      5.96256871      3.21770197     -0.98396627
  H      5.88882366      0.69320870     -4.43760242
  H      6.80769645      2.63990873     -3.21727532
  H      3.29366875     -0.13271436     -1.14338865
  H      5.54541042      6.61285688      1.32714814
  C      5.27011113      1.58871509      1.92145227
  C      4.96045137      1.66835744      3.28350805
  C      5.91695621      1.38760280      4.24382204
  C      7.19506521      1.00417221      3.85778668
  C      7.50998970      0.90771715      2.50949685
  C      6.55537756      1.19712442      1.54359757
  H      7.94306136      0.77646801      4.60802444
  H      8.50504047      0.60568732      2.20411324
  H      6.81302374      1.11713829      0.49382839
  H      4.11856129     -0.69209261     -3.38752041
  H      5.66253559      1.45988754      5.29516422
  H      3.95878571      1.95351560      3.58688895
  P      1.11616205      0.62487977      6.30029770
  C      1.56751827      2.15631826      5.40983109
  C      2.60023574      2.98642012      5.85629226
  C      2.95217947      4.12131244      5.14212638
  C      2.28425946      4.44296385      3.96753086
  C      1.26149733      3.62397940      3.51170837
  C      0.90502792      2.49234831      4.23038827
  H      2.55980021      5.33051592      3.40993914
  H      3.13202264      2.74184303      6.76899237
  H      0.09206218      1.86827787      3.88055448
  H      0.72968296      3.86944082      2.59959228
  C      2.75406470     -0.16730581      6.40756685
  C      3.13138687     -1.00455751      5.35463753
  C      4.38312678     -1.59626411      5.33359691
  C      5.28046451     -1.36044678      6.36672562
  C      4.91640398     -0.53341150      7.42065526
  C      3.66300354      0.06047931      7.44306564
  H      3.38930304      0.69983946      8.27443402
  H      6.26009261     -1.82370402      6.35141632
  H      5.61124642     -0.34921282      8.23178978
  H      2.43329054     -1.19226066      4.54508338
  H      3.75238563      4.75706079      5.50288769
  C      0.74628938      1.18584364      7.98740704
  C      0.29778279      2.48220598      8.25257986
  C     -0.06243872      2.84950465      9.54016645
  C      0.01073976      1.92836442     10.57582721
  C      0.43741057      0.63174120     10.31986630
  C      0.79414422      0.25849764      9.03432376
  H     -0.26914860      2.21882134     11.58154042
  H      0.48971702     -0.09294735     11.12406878
  H      1.11731308     -0.75816986      8.83700265
  H      4.65819719     -2.24422278      4.50938845
  H     -0.40225309      3.86043354      9.73387791
  H      0.23588144      3.20817679      7.44918229
  P      2.07289894     -3.27837963     -0.28002481
  C      2.83640820     -3.79057554     -1.85526171
  C      3.71253646     -4.87770834     -1.93360930
  C      4.29026671     -5.22919473     -3.14291681
  C      4.01028099     -4.49879625     -4.29030449
  C      3.14735188     -3.41374812     -4.22404389
  C      2.56517616     -3.06376454     -3.01470048
  H      4.46703257     -4.77231158     -5.23409471
  H      3.94611647     -5.44801259     -1.04157414
  H      1.89075126     -2.21491407     -2.96556319
  H      2.93226308     -2.83455379     -5.11464789
  C      1.07993555     -4.70890260      0.24529864
  C      0.56431518     -4.69817271      1.54651722
  C     -0.23974647     -5.73229604      1.99591717
  C     -0.55210235     -6.78742795      1.14738539
  C     -0.06467627     -6.79751518     -0.15137791
  C      0.74466190     -5.76489879     -0.60329977
  H      1.12240925     -5.78434281     -1.61920512
  H     -1.17437582     -7.60166817      1.49923260
  H     -0.31330713     -7.61432343     -0.81899404
  H      0.80492066     -3.87382835      2.21049448
  H      4.96600103     -6.07522180     -3.18910983
  C      3.49077077     -3.34393856      0.86926716
  C      4.26584076     -2.19743562      1.05263984
  C      5.39668262     -2.22520333      1.85220801
  C      5.76595273     -3.40035023      2.49411162
  C      4.99145948     -4.54181440      2.33860273
  C      3.86493787     -4.51710417      1.53097726
  H      6.65617648     -3.42557656      3.11140338
  H      5.26798917     -5.46003402      2.84349552
  H      3.27086209     -5.41635516      1.41788949
  H     -0.62359101     -5.71487125      3.00964439
  H      5.99327355     -1.32852894      1.97245264
  H      3.98213550     -1.27362247      0.56061743
  P     -3.61390004     -3.48751941      2.48845117
  C     -4.13967637     -4.95583097      3.42091089
  C     -4.82613915     -4.76361560      4.62537382
  C     -5.17033513     -5.84446086      5.42031070
  C     -4.82045057     -7.13221668      5.03527457
  C     -4.12240823     -7.33320537      3.85293726
  C     -3.77954498     -6.25389803      3.05249866
  H     -5.08856411     -7.97719648      5.65835000
  H     -5.09546877     -3.75915034      4.93462304
  H     -3.23484414     -6.42316599      2.13064390
  H     -3.84128052     -8.33522234      3.54973283
  C     -3.35852233     -4.10365490      0.78625273
  C     -2.21590856     -3.71818014      0.08593739
  C     -1.98128549     -4.18585636     -1.19900311
  C     -2.88934104     -5.04364626     -1.80346735
  C     -4.04174840     -5.41672743     -1.12551250
  C     -4.27721577     -4.94937056      0.15771480
  H     -5.17933195     -5.24908561      0.67868574
  H     -2.69949214     -5.42237909     -2.80060589
  H     -4.75842317     -6.07912099     -1.59685334
  H     -1.49438599     -3.06248165      0.56100315
  H     -5.71109863     -5.68086570      6.34524583
  C     -5.15006385     -2.52345849      2.30565343
  C     -5.03339923     -1.13896287      2.17134440
  C     -6.15867858     -0.34293269      2.03580347
  C     -7.42032756     -0.92129707      2.01719601
  C     -7.55022730     -2.29827350      2.14217047
  C     -6.42466378     -3.09544819      2.28952984
  H     -8.30140367     -0.29908877      1.91216390
  H     -8.53326638     -2.75453719      2.13371561
  H     -6.53913390     -4.16719717      2.40439476
  H     -1.07537944     -3.89826784     -1.72048064
  H     -6.05113047      0.73194876      1.95195716
  H     -4.04725439     -0.68589225      2.18292140
  P     -2.21329342      2.68577793      0.53161258
  C     -3.95915251      2.37937359      0.10318876
  C     -5.01485119      2.99174597      0.78456450
  C     -6.32648550      2.77678449      0.38751244
  C     -6.60396683      1.93724873     -0.68342892
  C     -5.56385690      1.30888243     -1.35387690
  C     -4.25235005      1.53263882     -0.96703904
  H     -7.62918627      1.76617034     -0.98961587
  H     -4.81068616      3.63257131      1.63457859
  H     -3.44319646      1.04079872     -1.49863096
  H     -5.77621048      0.63895532     -2.17880585
  C     -1.86783020      4.27260175     -0.29332805
  C     -0.70608270      4.39144348     -1.05636546
  C     -0.39251445      5.58403962     -1.69074354
  C     -1.24566072      6.67309357     -1.58200193
  C     -2.41534425      6.56208767     -0.84199553
  C     -2.72660600      5.37262640     -0.20279205
  H     -3.64656698      5.29638823      0.36530415
  H     -1.00302023      7.60422425     -2.08025377
  H     -3.08977294      7.40665692     -0.76233094
  H     -0.04874403      3.53423982     -1.15897281
  H     -7.13454978      3.26547310      0.91910872
  C     -2.28505007      3.07410111      2.30891522
  C     -2.60149636      2.02046459      3.17346744
  C     -2.61130145      2.20613379      4.54586463
  C     -2.29251924      3.44889469      5.07975680
  C     -1.96968500      4.49959094      4.23350664
  C     -1.96170980      4.31608319      2.85734566
  H     -2.29182399      3.59442645      6.15358570
  H     -1.71590319      5.46986558      4.64436297
  H     -1.70271847      5.14531307      2.20919601
  H      0.51196642      5.65930210     -2.28316278
  H     -2.86461620      1.37919602      5.19926728
  H     -2.84071870      1.04619166      2.76037016
  P     -3.00627671     -1.60698064     -3.68602278
  C     -3.15487718     -0.36693984     -5.01134784
  C     -2.15691587     -0.25946671     -5.98415965
  C     -2.20819761      0.74469992     -6.93764507
  C     -3.24841102      1.66381604     -6.93071542
  C     -4.23874124      1.57456416     -5.96221305
  C     -4.18930003      0.57258822     -5.00513627
  H     -3.28670182      2.44776518     -7.67769598
  H     -1.33759160     -0.97015440     -5.99927180
  H     -4.96687166      0.51569794     -4.25213487
  H     -5.05544253      2.28702876     -5.95028445
  C     -4.71477798     -1.99938800     -3.21367016
  C     -5.00311173     -2.15895635     -1.85595657
  C     -6.28604535     -2.47852456     -1.44011405
  C     -7.30023364     -2.63514241     -2.37455717
  C     -7.02971001     -2.46251503     -3.72558501
  C     -5.74776095     -2.14466968     -4.14606233
  H     -5.54956101     -1.99668701     -5.20146391
  H     -8.30315492     -2.88573188     -2.04949692
  H     -7.82129504     -2.57463606     -4.45722921
  H     -4.21335884     -2.02900884     -1.12307792
  H     -1.43123175      0.80914964     -7.69072601
  C     -2.35056634     -3.07181429     -4.54684319
  C     -0.96142459     -3.22860947     -4.57562719
  C     -0.38093769     -4.32118258     -5.19867076
  C     -1.18291118     -5.28141679     -5.80016637
  C     -2.56390553     -5.14184722     -5.77259169
  C     -3.14629142     -4.04719755     -5.15054024
  H     -0.73279724     -6.14017635     -6.28391291
  H     -3.19463317     -5.89125093     -6.23640852
  H     -4.22596608     -3.95805911     -5.12997680
  H     -6.49442169     -2.60561343     -0.38418594
  H      0.69840198     -4.42539245     -5.20540836
  H     -0.33205469     -2.48741787     -4.09396506
  P      1.30942019      2.13224164     -4.14437309
  C      1.35152726      1.27640699     -5.74726473
  C      1.22197779      1.95487141     -6.96314107
  C      1.22244729      1.25432613     -8.15942478
  C      1.34221324     -0.13001516     -8.15994286
  C      1.46207241     -0.81420949     -6.95820600
  C      1.46849484     -0.11418840     -5.76154217
  H      1.33674836     -0.67443074     -9.09673826
  H      1.10922386      3.03316489     -6.97138922
  H      1.55947668     -0.64801216     -4.82162010
  H      1.54778695     -1.89486632     -6.95155421
  C      2.75177688      3.24219064     -4.12124555
  C      2.93010015      4.03642923     -2.98382896
  C      3.99268775      4.92010059     -2.89742622
  C      4.90630747      5.00975139     -3.94014913
  C      4.75646467      4.20412518     -5.06038047
  C      3.68892192      3.32274088     -5.15247027
  H      3.58340517      2.69897055     -6.03241033
  H      5.73728996      5.70206179     -3.87547556
  H      5.47312428      4.26251424     -5.87125486
  H      2.22790392      3.95599070     -2.16100918
  H      1.12527718      1.79136995     -9.09565547
  C     -0.10142833      3.26872299     -4.34022816
  C     -1.36321165      2.83101777     -3.93103575
  C     -2.47418589      3.64923562     -4.05039604
  C     -2.34288178      4.92009627     -4.59343285
  C     -1.09620645      5.36577380     -5.01107081
  C      0.01903348      4.55090839     -4.88218770
  H     -3.20990027      5.56320238     -4.68692313
  H     -0.98827338      6.35718949     -5.43531793
  H      0.98957125      4.91604031     -5.19768831
  H      4.10903401      5.53776071     -2.01410230
  H     -3.44192467      3.29283587     -3.71608105
  H     -1.47343864      1.83723309     -3.51052551

