246
Energy =   -372.46152097 au
 Au      0.13953382     -1.36962154      1.30094825
 Au      0.29742342     -1.64655434     -3.02594936
 Au      0.19864079      1.23606074      1.65865216
 Au     -0.85246168     -0.27875537      3.57350703
 Au      2.68808288      1.64638058     -0.02159260
 Au     -1.62731361     -1.16623413     -1.30665047
 Au      0.62997627      0.29410197     -1.18300199
 Au      1.52303939      2.71477264     -2.05981290
  P     -0.03961131      3.64187252      1.57908509
  C     -1.44113503      4.14254373      0.52347541
  C     -2.17267750      5.31438793      0.73288921
  C     -3.22507178      5.64670744     -0.10616832
  C     -3.56424572      4.81745968     -1.16674043
  C     -2.84633073      3.64906935     -1.38351780
  C     -1.79837166      3.31339497     -0.54204543
  H     -4.38818825      5.07744263     -1.82069762
  H     -1.91913744      5.96966859      1.55830383
  H     -1.25019527      2.39284937     -0.70879463
  H     -3.10339530      2.99481685     -2.20807571
  C      1.35846552      4.57259358      0.87036751
  C      2.59582130      4.48736379      1.51863455
  C      3.71405334      5.11772055      0.99616919
  C      3.62021666      5.82730432     -0.19403583
  C      2.40179797      5.91139526     -0.85158901
  C      1.27659877      5.28843346     -0.32684497
  H      0.32676360      5.38165069     -0.83983422
  H      4.49531165      6.31583662     -0.60580382
  H      2.32053911      6.46738061     -1.77848985
  H      2.67315483      3.93679201      2.45007957
  H     -3.78302293      6.55900717      0.06985813
  C     -0.35710751      4.49913813      3.15222175
  C     -1.02612214      3.80789286      4.16497877
  C     -1.35077635      4.43887871      5.35477132
  C     -0.99002954      5.76356703      5.56025245
  C     -0.30364222      6.45409469      4.57087295
  C      0.00782468      5.83075894      3.37239034
  H     -1.24041113      6.25542938      6.49275702
  H     -0.01320377      7.48610790      4.72939655
  H      0.54183669      6.37824787      2.60420899
  H      4.66122402      5.05163281      1.51882402
  H     -1.88376172      3.89323330      6.12478242
  H     -1.29257701      2.76578829      4.01819378
  P      1.82048287     -2.00181447     -4.84488897
  C      2.22078611     -3.66122750     -5.46944322
  C      1.36496242     -4.28777233     -6.38090379
  C      1.62098718     -5.58062516     -6.81130254
  C      2.72742825     -6.26941090     -6.33156243
  C      3.57288647     -5.66390082     -5.41154636
  C      3.31835801     -4.37229390     -4.97571236
  H      2.92920114     -7.27786662     -6.67259147
  H      0.49893598     -3.75552675     -6.75908937
  H      3.98008605     -3.90967781     -4.25145862
  H      4.43635847     -6.19784828     -5.03189724
  C      3.45657158     -1.26181452     -4.50802512
  C      3.61598474     -0.45754371     -3.38092428
  C      4.82081215      0.17384520     -3.11327644
  C      5.89510816      0.00575597     -3.97410214
  C      5.75384561     -0.79477511     -5.10074940
  C      4.54679992     -1.42143962     -5.36947593
  H      4.45336618     -2.04136677     -6.25360162
  H      6.83983204      0.49522797     -3.76916332
  H      6.58989895     -0.93151794     -5.77667588
  H      2.78178396     -0.32718230     -2.70280491
  H      0.95536914     -6.05059293     -7.52588678
  C      1.31182859     -1.07263532     -6.32720841
  C      0.35375511     -0.06839664     -6.18186200
  C     -0.02346447      0.71569702     -7.26057388
  C      0.55423128      0.50595238     -8.50461288
  C      1.50368495     -0.49485896     -8.66515204
  C      1.88173965     -1.27921480     -7.58710539
  H      0.26322601      1.11972421     -9.34893441
  H      1.95378557     -0.66595265     -9.63609667
  H      2.62083376     -2.05971304     -7.72692158
  H      4.91596952      0.79418896     -2.22857075
  H     -0.76783572      1.49280850     -7.12942983
  H     -0.09866190      0.09718812     -5.21008707
  P      0.27320625     -3.75327166      1.00524060
  C      1.67171556     -4.48379576      1.91235382
  C      1.52674646     -5.41849348      2.93849276
  C      2.63916586     -5.90186924      3.61202882
  C      3.91057669     -5.46195100      3.27229462
  C      4.06781250     -4.52971206      2.25560074
  C      2.95688499     -4.03764398      1.58808784
  H      4.77748717     -5.84402931      3.79808489
  H      0.54193183     -5.77951376      3.20986187
  H      3.08143872     -3.29953361      0.80349346
  H      5.05732200     -4.18187468      1.98171042
  C      0.39351113     -4.48756937     -0.66204002
  C     -0.73076401     -4.37650258     -1.48648542
  C     -0.72710071     -4.88999106     -2.77429070
  C      0.40557479     -5.53283852     -3.25673927
  C      1.53023166     -5.64181054     -2.45184300
  C      1.53040576     -5.11837964     -1.16704571
  H      2.41645786     -5.22163236     -0.55190708
  H      0.40822265     -5.94913312     -4.25702704
  H      2.41627350     -6.14223470     -2.82488676
  H     -1.62766727     -3.90877826     -1.09640878
  H      2.50958821     -6.63131706      4.40314309
  C     -1.17311898     -4.61692534      1.68993982
  C     -2.08359259     -3.92054156      2.48501312
  C     -3.13371870     -4.58195345      3.10113081
  C     -3.29921621     -5.94730078      2.91863384
  C     -2.42151255     -6.64649056      2.10067319
  C     -1.36524028     -5.98900007      1.49127214
  H     -4.11713482     -6.46426572      3.40641364
  H     -2.55526790     -7.71025231      1.94282841
  H     -0.67972268     -6.54134841      0.85840492
  H     -1.61360996     -4.80299518     -3.39134200
  H     -3.82633113     -4.02794521      3.72358212
  H     -1.96696054     -2.85071555      2.62127256
  P     -3.94688275     -1.12687724     -0.64878636
  C     -4.63844329     -2.65791915      0.05461135
  C     -5.40111641     -2.69762039      1.22224963
  C     -5.93610583     -3.89526751      1.67222545
  C     -5.70784309     -5.07189815      0.97251069
  C     -4.92149986     -5.05140352     -0.17154068
  C     -4.38838129     -3.85533129     -0.62449580
  H     -6.13348963     -6.00467155      1.32285484
  H     -5.58219351     -1.79007583      1.78615272
  H     -3.77470431     -3.84613544     -1.51863708
  H     -4.72380719     -5.96862157     -0.71399298
  C     -5.06531495     -0.76077161     -2.04739554
  C     -5.20321486      0.57314019     -2.44743270
  C     -6.01383699      0.91159227     -3.51898931
  C     -6.68557113     -0.07861279     -4.22369291
  C     -6.54349920     -1.40623295     -3.84659533
  C     -5.74071455     -1.74658731     -2.76794396
  H     -5.65467994     -2.78779311     -2.48029117
  H     -7.32015981      0.18507699     -5.06138896
  H     -7.06608286     -2.18480962     -4.39006994
  H     -4.68438516      1.35387591     -1.90191281
  H     -6.53538505     -3.90572418      2.57558991
  C     -4.42976665      0.19682314      0.50814962
  C     -3.43973420      0.94101158      1.14545664
  C     -3.76791683      1.98625510      1.99518501
  C     -5.09905618      2.30969351      2.21485986
  C     -6.09811981      1.58113397      1.58073838
  C     -5.76927714      0.53530385      0.73267969
  H     -5.35762255      3.13194208      2.87148890
  H     -7.13939105      1.83604395      1.73954611
  H     -6.55581161     -0.01418319      0.22812685
  H     -6.12300067      1.95278615     -3.80026299
  H     -2.98035122      2.55811501      2.47185587
  H     -2.39882913      0.70521941      0.96024311
  P     -2.03669600     -0.89588722      5.52510675
  C     -1.27282298     -2.31499625      6.36926999
  C     -1.37888100     -2.52612287      7.74662751
  C     -0.76940611     -3.62188135      8.33807470
  C     -0.04418654     -4.51966637      7.56696375
  C      0.07112357     -4.31792502      6.19829495
  C     -0.53621577     -3.22342411      5.60455099
  H      0.43418109     -5.37361284      8.03183340
  H     -1.93740067     -1.82762108      8.35921104
  H     -0.43998603     -3.06718901      4.53530305
  H      0.64053966     -5.01211810      5.59130280
  C     -3.75925385     -1.40633430      5.23108084
  C     -4.56008709     -0.55552580      4.46454253
  C     -5.89252956     -0.85778459      4.23450254
  C     -6.44105679     -2.02343553      4.75544791
  C     -5.65016418     -2.88404894      5.50405884
  C     -4.31719145     -2.57932285      5.74358446
  H     -3.71172886     -3.25022313      6.34200139
  H     -7.48502250     -2.25642769      4.58205655
  H     -6.07335361     -3.79399796      5.91333612
  H     -4.13288638      0.35438510      4.05580010
  H     -0.86019192     -3.77317491      9.40736577
  C     -2.20794099      0.35084303      6.84020663
  C     -1.17639943      1.27517393      7.01496492
  C     -1.22824412      2.20992041      8.03759204
  C     -2.32382297      2.24424715      8.89030986
  C     -3.36473682      1.34293864      8.71415582
  C     -3.30918023      0.39956410      7.69962042
  H     -2.36698632      2.97519215      9.68903683
  H     -4.22447180      1.36993233      9.37349246
  H     -4.12653249     -0.30090197      7.57256156
  H     -6.50618008     -0.17759033      3.65484132
  H     -0.41095250      2.90959852      8.16968649
  H     -0.32864484      1.25925677      6.33974904
  P      4.17960778      0.77398219      1.63355127
  C      5.55941736      1.81788804      2.18652291
  C      6.09652009      1.77761985      3.47541564
  C      7.16262625      2.59765953      3.81331804
  C      7.70624117      3.46261602      2.87370199
  C      7.18072838      3.50938200      1.58892707
  C      6.11263498      2.69484958      1.24838321
  H      8.53916195      4.10154898      3.14228678
  H      5.67821997      1.10594191      4.21629493
  H      5.69871197      2.73335414      0.24566018
  H      7.60181920      4.18264751      0.85127857
  C      5.00463123     -0.71332455      0.98156454
  C      4.43606059     -1.35555690     -0.12061641
  C      5.05598120     -2.44852818     -0.70694331
  C      6.25540901     -2.92050126     -0.19094287
  C      6.82570445     -2.29809267      0.91292690
  C      6.20946954     -1.20051817      1.49415710
  H      6.66970803     -0.71351211      2.34649491
  H      6.74824701     -3.76878885     -0.65102040
  H      7.76208631     -2.66422908      1.31743455
  H      3.49960876     -0.98719537     -0.52392445
  H      7.57140883      2.55790724      4.81630858
  C      3.36804808      0.22431215      3.16591032
  C      2.87603100      1.19248863      4.04725243
  C      2.15998501      0.82219678      5.17330250
  C      1.89827097     -0.52028129      5.42461287
  C      2.37038441     -1.48902653      4.54865426
  C      3.10066733     -1.11947186      3.42894882
  H      1.34146882     -0.81079075      6.30745350
  H      2.17514191     -2.53784383      4.74090427
  H      3.47391734     -1.88335624      2.75823760
  H      4.60473272     -2.92398143     -1.57088153
  H      1.81084542      1.58453868      5.85959708
  H      3.06812023      2.24239559      3.85423948
  P      0.66311644      3.76563565     -4.01623950
  C      0.42931355      5.56355710     -3.96565601
  C      1.45049166      6.44206265     -4.33831301
  C      1.29667208      7.80964291     -4.16412388
  C      0.13273831      8.31630140     -3.60173030
  C     -0.88024772      7.45067783     -3.21052102
  C     -0.73228540      6.08411686     -3.38498795
  H      0.01617091      9.38494148     -3.46565102
  H      2.36507781      6.05340441     -4.77226672
  H     -1.52601988      5.41208004     -3.07579049
  H     -1.78930088      7.83979974     -2.76622580
  C     -0.96411136      3.12665534     -4.54168628
  C     -1.42176657      1.92924200     -3.99257364
  C     -2.60255840      1.34804053     -4.42829500
  C     -3.35159096      1.96557195     -5.41977268
  C     -2.92031325      3.17053126     -5.95952567
  C     -1.73583884      3.74753054     -5.52761259
  H     -1.40910295      4.68658169     -5.95922832
  H     -4.27117043      1.51030546     -5.76824908
  H     -3.50723785      3.66181113     -6.72681092
  H     -0.84354115      1.44803612     -3.21296238
  H      2.09125728      8.48169616     -4.46682669
  C      1.67582443      3.41884614     -5.48755885
  C      2.59942043      2.37411302     -5.41211859
  C      3.35541456      2.01455182     -6.51648318
  C      3.19826345      2.69693695     -7.71460293
  C      2.28569342      3.74040806     -7.80190093
  C      1.52714506      4.09985279     -6.69913542
  H      3.78712699      2.41696580     -8.58014090
  H      2.16218976      4.27681086     -8.73549865
  H      0.81678347      4.91480707     -6.77919578
  H     -2.93293270      0.41196055     -3.99198383
  H      4.06571174      1.19878346     -6.44179521
  H      2.72219672      1.83821686     -4.47648957
