#B3LYP/6-31+G(d) OPT FREQ

246, Energy =   -372.43909742 au

0 1
 Au      1.32096136      0.19494709      2.38091491
 Au     -0.46105568     -0.91625343      0.38814164
 Au      1.43180979     -1.14161877     -4.51110060
 Au      0.67021652     -0.11560042     -2.17305925
 Au     -1.73968429      0.76049879     -1.65177405
 Au     -1.26610605      0.88039409      2.41569248
 Au      0.30649262      1.56019119      0.16316378
 Au      3.14293296     -1.03447367     -2.58536767
  P     -2.88195784      1.49456156      4.02460011
  C     -2.37491168      0.93956378      5.68187144
  C     -2.73929299      1.59737650      6.85913680
  C     -2.33348013      1.10487710      8.09036938
  C     -1.55638969     -0.04323470      8.16510305
  C     -1.17224036     -0.69449793      7.00055051
  C     -1.57673601     -0.20296035      5.77030757
  H     -1.24248517     -0.42487542      9.12943097
  H     -3.33349196      2.50290377      6.81345544
  H     -1.26434130     -0.70224196      4.85960965
  H     -0.55121783     -1.58201391      7.04772740
  C     -4.57075101      0.85207176      3.81512842
  C     -4.96685685      0.46185367      2.53355130
  C     -6.24537212     -0.01949915      2.30447176
  C     -7.14414997     -0.12998077      3.35684331
  C     -6.75413817      0.23207853      4.63951340
  C     -5.47624021      0.71774702      4.87096035
  H     -5.17747609      0.98231283      5.87882524
  H     -8.14424238     -0.50746683      3.17932908
  H     -7.44812083      0.13438490      5.46615466
  H     -4.26153952      0.52833301      1.71189023
  H     -2.62460013      1.62324256      8.99652508
  C     -3.03921144      3.29619933      4.21181302
  C     -1.93524900      4.07343069      3.85011066
  C     -1.96158427      5.45083658      3.99394341
  C     -3.09838216      6.07384381      4.49173882
  C     -4.20674111      5.31443683      4.84106025
  C     -4.18136505      3.93420955      4.70315896
  H     -3.12220161      7.15164166      4.60120457
  H     -5.09837271      5.79795922      5.22279845
  H     -5.05611206      3.35162121      4.96831136
  H     -6.53625435     -0.31649637      1.30317986
  H     -1.09690214      6.03914739      3.70883830
  H     -1.05236117      3.58823063      3.44643418
  P     -4.03181853      1.36407456     -1.93747673
  C     -5.13457489     -0.07169885     -1.73958998
  C     -6.47494995      0.01389217     -1.35670222
  C     -7.24952507     -1.13301999     -1.25210392
  C     -6.70191983     -2.37699517     -1.53518628
  C     -5.36822649     -2.47528735     -1.90990990
  C     -4.58948616     -1.33239259     -1.99796046
  H     -7.31256202     -3.26912965     -1.46166757
  H     -6.91613833      0.97967707     -1.13834099
  H     -3.54124374     -1.41543620     -2.26555091
  H     -4.93459159     -3.44220026     -2.13911486
  C     -4.33169869      1.93295773     -3.63974060
  C     -3.27889910      2.57759388     -4.29436860
  C     -3.43525491      3.05292300     -5.58625255
  C     -4.64868289      2.89319231     -6.24166917
  C     -5.70082211      2.24963622     -5.60333518
  C     -5.54514909      1.76674510     -4.31239324
  H     -6.36573793      1.24733489     -3.83038239
  H     -4.77295950      3.26444908     -7.25207449
  H     -6.64841194      2.12080842     -6.11334404
  H     -2.32888336      2.70189732     -3.78387645
  H     -8.28904645     -1.05198371     -0.95619628
  C     -4.79669977      2.67116280     -0.92129847
  C     -4.23966792      2.94792587      0.32840856
  C     -4.79961889      3.91166249      1.15267509
  C     -5.91868581      4.62029763      0.73697890
  C     -6.46829610      4.36903213     -0.51248720
  C     -5.91119982      3.40431551     -1.33753724
  H     -6.35475521      5.37243960      1.38384334
  H     -7.33438361      4.92720061     -0.84841536
  H     -6.34116543      3.22754206     -2.31659614
  H     -2.60759271      3.54667537     -6.08268378
  H     -4.36095502      4.11103152      2.12219701
  H     -3.35677639      2.40555557      0.65356153
  P      5.17574841     -1.33977488     -1.37761768
  C      6.08216694      0.21222422     -1.08208271
  C      7.36821614      0.26094817     -0.53553059
  C      8.01235005      1.47711425     -0.36445401
  C      7.38817153      2.65899496     -0.74308453
  C      6.11380905      2.62195373     -1.29055783
  C      5.46570049      1.40796616     -1.45151170
  H      7.89846016      3.60679425     -0.61751363
  H      7.87370277     -0.65609880     -0.25565804
  H      4.46998846      1.37839286     -1.88088408
  H      5.62467956      3.53903664     -1.59790317
  C      6.41735772     -2.44573109     -2.11162422
  C      6.29551360     -3.82930005     -1.94553153
  C      7.17652754     -4.69332531     -2.57558301
  C      8.18211528     -4.19161772     -3.39118521
  C      8.29898430     -2.82161205     -3.57979906
  C      7.41970897     -1.95315684     -2.95170293
  H      7.51565592     -0.88470905     -3.10998647
  H      8.87119991     -4.86851979     -3.88221763
  H      9.07775377     -2.42504050     -4.22092928
  H      5.50970632     -4.22879555     -1.31302452
  H      9.01133923      1.50081411      0.05525902
  C      4.93144429     -2.04731243      0.28668854
  C      3.63495254     -2.09713698      0.80047939
  C      3.38439373     -2.67070970      2.03767095
  C      4.42916971     -3.19822716      2.78365405
  C      5.72543825     -3.14104625      2.29093466
  C      5.97572833     -2.57451533      1.05105228
  H      4.23308360     -3.65937010      3.74429597
  H      6.54470237     -3.55052078      2.87037792
  H      6.98910353     -2.55646784      0.66723750
  H      7.07653422     -5.76282211     -2.42953637
  H      2.36762446     -2.72436501      2.40854824
  H      2.81335518     -1.69968517      0.21403485
  P     -1.30640223     -3.13481704      0.57769968
  C     -0.14647667     -4.35636749      1.27343227
  C     -0.39891543     -5.13965324      2.39984575
  C      0.55884183     -6.03201620      2.86030029
  C      1.77261227     -6.16081061      2.20025795
  C      2.02919073     -5.39453162      1.07048327
  C      1.07945159     -4.49507305      0.61421747
  H      2.51744431     -6.85911667      2.56324372
  H     -1.34679394     -5.05886993      2.91888281
  H      1.28573775     -3.89062251     -0.26376703
  H      2.97396716     -5.49140244      0.54795717
  C     -1.86736462     -3.99504655     -0.92795325
  C     -1.62420931     -3.43205823     -2.18102826
  C     -2.00039669     -4.09501461     -3.33961865
  C     -2.62803040     -5.32971083     -3.26027455
  C     -2.86876954     -5.90454027     -2.01860550
  C     -2.48569777     -5.24817931     -0.86001421
  H     -2.66041607     -5.71094696      0.10504987
  H     -2.92208401     -5.84766565     -4.16563563
  H     -3.35102957     -6.87283075     -1.95254195
  H     -1.12794004     -2.46989945     -2.24878431
  H      0.35047725     -6.63429177      3.73708652
  C     -2.73152997     -3.11852942      1.70452550
  C     -2.50744276     -2.74639444      3.03508512
  C     -3.56133463     -2.62927504      3.92601403
  C     -4.86180537     -2.86299742      3.49754380
  C     -5.10015411     -3.20149177      2.17333879
  C     -4.04475432     -3.32528535      1.28157709
  H     -5.68768880     -2.76907807      4.19277389
  H     -6.11412865     -3.36950650      1.82873574
  H     -4.24683233     -3.58346723      0.24873967
  H     -1.79789056     -3.64889696     -4.30659133
  H     -3.36843219     -2.35068717      4.95590123
  H     -1.49422491     -2.54858119      3.36992649
  P      1.03010734      3.76722751     -0.36512838
  C      1.05176846      3.87776047     -2.18307676
  C      0.14049217      4.62631655     -2.92791464
  C      0.10186583      4.51282243     -4.31102479
  C      0.96692486      3.65061268     -4.96912314
  C      1.88633566      2.90762966     -4.23908058
  C      1.92385064      3.01759165     -2.85945942
  H      0.92676774      3.55658848     -6.04805897
  H     -0.54565605      5.30110518     -2.42949257
  H      2.63585081      2.42842935     -2.29181327
  H      2.57039093      2.23542708     -4.74451286
  C      2.71612536      4.21212165      0.14994852
  C      3.30332826      3.51317310      1.20617813
  C      4.57234899      3.84145983      1.65525195
  C      5.27241886      4.87778388      1.05306268
  C      4.70481401      5.57358487     -0.00740370
  C      3.43681773      5.24323391     -0.46073091
  H      3.00133858      5.78424131     -1.29326285
  H      6.26327993      5.13939441      1.40527727
  H      5.25202221      6.37914984     -0.48283958
  H      2.75745808      2.70275644      1.67992211
  H     -0.61174383      5.10207217     -4.87554029
  C     -0.02279472      5.14626083      0.17755322
  C     -1.40298014      5.02263783     -0.01708370
  C     -2.26458005      6.03170159      0.37992951
  C     -1.76474273      7.16908642      1.00055220
  C     -0.39997972      7.29020906      1.22324593
  C      0.46717442      6.28751228      0.81423980
  H     -2.43945154      7.95680975      1.31432917
  H     -0.00514552      8.17301219      1.71249028
  H      1.53115482      6.39677237      0.98893358
  H      5.01541241      3.28555467      2.47378075
  H     -3.32994376      5.92794061      0.20990096
  H     -1.80019303      4.12606882     -0.48307338
  P      0.30373641     -1.65979092     -6.53043384
  C      1.03381397     -1.08147587     -8.08942179
  C      1.68323413     -1.93233706     -8.98539164
  C      2.28511205     -1.42061795    -10.12548088
  C      2.25560030     -0.05689152    -10.37998490
  C      1.62646863      0.80083540     -9.48637715
  C      1.02582188      0.29465921     -8.34570414
  H      2.72577384      0.33960236    -11.27215776
  H      1.71386389     -2.99884828     -8.79371264
  H      0.53994313      0.96744566     -7.64563686
  H      1.60594432      1.86761641     -9.67782108
  C     -1.43397389     -1.11224847     -6.62974796
  C     -2.17571435     -1.05792358     -5.44783251
  C     -3.53464079     -0.79123387     -5.47928426
  C     -4.16824625     -0.54753906     -6.69002377
  C     -3.43413480     -0.55999751     -7.86740790
  C     -2.07792610     -0.84760662     -7.84038713
  H     -1.51630742     -0.86626116     -8.76717255
  H     -5.23186677     -0.34126581     -6.71307184
  H     -3.92118421     -0.35715521     -8.81413781
  H     -1.68108296     -1.22913434     -4.49702356
  H      2.77980895     -2.09232812    -10.81745948
  C      0.09939140     -3.45895588     -6.71424263
  C      0.66420252     -4.30070387     -5.75468454
  C      0.49250418     -5.67454286     -5.82742518
  C     -0.24852342     -6.22578394     -6.86311970
  C     -0.81672923     -5.39920930     -7.82424815
  C     -0.64852603     -4.02612542     -7.75080643
  H     -0.38463581     -7.29928305     -6.92181483
  H     -1.39673771     -5.82676827     -8.63386924
  H     -1.10398980     -3.38760754     -8.49964924
  H     -4.10315103     -0.77397295     -4.55655836
  H      0.93722927     -6.31406337     -5.07356358
  H      1.24316652     -3.86966963     -4.94449307
  P      2.68467819      0.03697477      4.33574369
  C      2.60276370     -1.58419284      5.15783831
  C      3.61336613     -2.10789622      5.96621833
  C      3.46612544     -3.35870069      6.54908060
  C      2.31484884     -4.10296588      6.33107160
  C      1.30611506     -3.59528255      5.52252775
  C      1.45239824     -2.34808140      4.93829007
  H      2.20555505     -5.08047987      6.78561469
  H      4.52135541     -1.54056319      6.13494914
  H      0.67009214     -1.95796436      4.29479787
  H      0.40855106     -4.17453955      5.33805474
  C      1.96016108      1.16600163      5.56821586
  C      1.44402988      2.38254117      5.11318586
  C      0.85058640      3.27319484      5.99255516
  C      0.76239086      2.96023035      7.34259758
  C      1.27448905      1.75700314      7.80700895
  C      1.86747951      0.86294242      6.92795227
  H      2.25185187     -0.07981838      7.30008322
  H      0.29207229      3.65268238      8.03070575
  H      1.20709841      1.50802591      8.85969757
  H      1.50824561      2.62780144      4.05788521
  H      4.25756864     -3.75380109      7.17518224
  C      4.44122005      0.50454223      4.28678201
  C      5.09965854      0.45818573      3.05568169
  C      6.43787035      0.80620679      2.96028945
  C      7.13271993      1.21200216      4.09156156
  C      6.48322509      1.27652073      5.31718697
  C      5.14493771      0.92926708      5.41720465
  H      8.17874065      1.48493757      4.01645178
  H      7.02036487      1.60210557      6.20036766
  H      4.64041768      0.99851057      6.37438960
  H      0.45155991      4.21124918      5.62366645
  H      6.93728265      0.76214628      1.99922844
  H      4.55587403      0.14893359      2.16905709

