246
Energy =   -372.45853809 au
 Au     -0.73870662     -0.65376640      2.34331488
 Au      1.02750391      1.36290326      2.14421929
 Au      0.28549211     -0.81255418     -3.42896564
 Au     -2.80050578      0.69335929      0.52102932
 Au      1.47888386     -0.87288743      0.84984012
 Au      1.35318155      0.84543646     -1.61607794
 Au     -0.88855431     -0.47163083     -1.11028282
 Au     -2.70891464     -1.89092339      0.31935018
  P     -2.35748235     -1.24628270      3.99413131
  C     -4.04726329     -1.02416800      3.36919694
  C     -4.72376851     -2.08083210      2.75177891
  C     -5.94353520     -1.87086356      2.12508956
  C     -6.50367697     -0.60185622      2.09519885
  C     -5.83556345      0.45808432      2.69341232
  C     -4.61227129      0.25364735      3.31355661
  H     -7.45664807     -0.43714933      1.60659106
  H     -4.30146651     -3.07826431      2.77968639
  H     -4.09549397      1.09043693      3.76970764
  H     -6.26872942      1.45128031      2.67418931
  C     -2.25442360     -0.26590226      5.52352626
  C     -1.00135380      0.22251319      5.90133292
  C     -0.84179025      0.91400330      7.09112157
  C     -1.93689548      1.13426787      7.91567049
  C     -3.18859655      0.65923335      7.54667738
  C     -3.34943398     -0.04177727      6.36146398
  H     -4.32844014     -0.41716641      6.08594501
  H     -1.81513504      1.67774331      8.84516408
  H     -4.04521869      0.83063766      8.18808321
  H     -0.14666977      0.05868083      5.25297419
  H     -6.45502975     -2.70541533      1.65961440
  C     -2.29808850     -2.95442968      4.61955654
  C     -1.10682749     -3.66865317      4.47711896
  C     -1.00363867     -4.97032434      4.94310739
  C     -2.08795592     -5.57038517      5.56827484
  C     -3.27013343     -4.86048897      5.73675279
  C     -3.37779194     -3.56068423      5.26783836
  H     -2.01007006     -6.58828457      5.93157099
  H     -4.11317982     -5.32082400      6.23865729
  H     -4.30319450     -3.01333512      5.40684346
  H      0.13692393      1.28721940      7.37045341
  H     -0.07487082     -5.51522510      4.81859620
  H     -0.25485228     -3.19372486      4.00195162
  P      2.93538599     -2.47751007     -0.16827781
  C      4.49772014     -1.75668103     -0.75874923
  C      5.63532603     -1.73807013      0.05206610
  C      6.79143455     -1.09898956     -0.36899778
  C      6.82899199     -0.47015066     -1.60515301
  C      5.70148896     -0.47650175     -2.41552102
  C      4.54025711     -1.10262379     -1.99367195
  H      7.73368271      0.02474511     -1.93793822
  H      5.61685921     -2.23100673      1.01739738
  H      3.66178421     -1.09493341     -2.63139569
  H      5.72679601      0.01389085     -3.38089338
  C      2.32831241     -3.44000599     -1.58976367
  C      0.95533773     -3.67975250     -1.68012388
  C      0.43909048     -4.47583088     -2.69103955
  C      1.29074805     -5.04424266     -3.62899968
  C      2.65445565     -4.79319603     -3.56395271
  C      3.17239563     -3.99514980     -2.55556642
  H      4.23878609     -3.80507269     -2.51801057
  H      0.89323379     -5.68433723     -4.40770182
  H      3.32187721     -5.22506649     -4.30050346
  H      0.29065165     -3.25646153     -0.93504834
  H      7.66597179     -1.09556652      0.27109569
  C      3.49043735     -3.74925774      1.01128595
  C      3.40091259     -3.46560968      2.37672165
  C      3.81774351     -4.39173397      3.32077904
  C      4.32651000     -5.61710177      2.91223098
  C      4.41790090     -5.91112081      1.55796952
  C      4.00392872     -4.98564342      0.61244422
  H      4.64973443     -6.34330743      3.64860790
  H      4.81548230     -6.86616259      1.23483553
  H      4.07583654     -5.22862977     -0.44151995
  H     -0.62787639     -4.66138039     -2.73631244
  H      3.74206371     -4.15650762      4.37609740
  H      2.99699011     -2.51104599      2.69704510
  P      3.05224504      2.48732210     -1.53517507
  C      4.28761983      2.47142524     -0.19486919
  C      5.17763728      3.53211708      0.00523079
  C      6.08077570      3.50045550      1.05731406
  C      6.09928980      2.42249784      1.93384137
  C      5.21648674      1.36817585      1.74900936
  C      4.32485532      1.39345948      0.68814604
  H      6.79902094      2.40713651      2.76104307
  H      5.15300098      4.39079642     -0.65631981
  H      3.64963833      0.55932175      0.53696907
  H      5.22060279      0.52340082      2.42829876
  C      2.33475739      4.15353936     -1.37669330
  C      1.26941102      4.32532375     -0.48983492
  C      0.69659705      5.57262125     -0.31037771
  C      1.17138097      6.66634553     -1.02171385
  C      2.22216193      6.50559401     -1.91357128
  C      2.80270377      5.25854035     -2.09055245
  H      3.62068692      5.14240740     -2.79200045
  H      0.71880721      7.64088099     -0.88195963
  H      2.59421347      7.35496321     -2.47446991
  H      0.88762187      3.47029804      0.06019593
  H      6.76803831      4.32647431      1.19824576
  C      3.99380411      2.58083494     -3.08729588
  C      5.38653165      2.63235004     -3.16308029
  C      6.02294877      2.66654891     -4.39618468
  C      5.27976098      2.64710879     -5.56740103
  C      3.89311363      2.59106142     -5.50444484
  C      3.25512925      2.55122264     -4.27547148
  H      5.77834821      2.67311640     -6.52904941
  H      3.30806162      2.57733535     -6.41656922
  H      2.17157869      2.49922839     -4.23162172
  H     -0.12544349      5.69412460      0.38489934
  H      7.10508401      2.70860710     -4.43836073
  H      5.98009890      2.64159202     -2.25642606
  P      0.80415988     -1.21006647     -5.70703844
  C      2.46959384     -1.88916749     -5.98659071
  C      2.69509085     -3.16525885     -6.50384267
  C      3.98840582     -3.64778281     -6.64510972
  C      5.07138643     -2.86361639     -6.27413364
  C      4.85756129     -1.59313016     -5.75509071
  C      3.56762945     -1.11310020     -5.60004544
  H      6.08091933     -3.23910132     -6.39213544
  H      1.85730356     -3.78359558     -6.80498854
  H      3.40532151     -0.12015832     -5.19240145
  H      5.70081360     -0.97243616     -5.47428379
  C      0.85510992      0.38587817     -6.57443387
  C      0.09307515      1.44026745     -6.06621713
  C      0.09371262      2.67939475     -6.68688949
  C      0.85888356      2.88246483     -7.82757094
  C      1.62255905      1.84248328     -8.34282435
  C      1.62314864      0.60204638     -7.72237095
  H      2.22903142     -0.20132303     -8.12564111
  H      0.86138114      3.85048471     -8.31448143
  H      2.21954293      1.99691232     -9.23404453
  H     -0.50547748      1.28211260     -5.17513576
  H      4.14884756     -4.63785755     -7.05591221
  C     -0.28300181     -2.26238398     -6.71833143
  C     -0.74366306     -3.45291677     -6.14862029
  C     -1.54178757     -4.32186778     -6.87566005
  C     -1.91318983     -3.99991919     -8.17429952
  C     -1.48202631     -2.80822565     -8.74043947
  C     -0.66900763     -1.94474762     -8.02169933
  H     -2.54136845     -4.67583389     -8.74239070
  H     -1.77608714     -2.54941757     -9.75097552
  H     -0.33370473     -1.02051136     -8.47786742
  H     -0.50336708      3.48720479     -6.27929425
  H     -1.87555543     -5.24982109     -6.42538353
  H     -0.46926889     -3.69407458     -5.12758743
  P     -3.54455789      2.98944199      0.36797759
  C     -5.22862860      2.94867815     -0.32942636
  C     -5.95642592      4.11221055     -0.60067754
  C     -7.23055710      4.03566092     -1.13874144
  C     -7.80142219      2.79972231     -1.41424595
  C     -7.09109743      1.63789219     -1.14884426
  C     -5.81563436      1.71450294     -0.61198974
  H     -8.79890273      2.74349332     -1.83378982
  H     -5.52544031      5.08334320     -0.38540508
  H     -5.26621215      0.80333080     -0.40138275
  H     -7.52932038      0.66889118     -1.35867365
  C     -2.61785072      3.90478070     -0.91322507
  C     -1.78955475      3.17721577     -1.76867884
  C     -1.09920882      3.79488884     -2.79870795
  C     -1.23203887      5.16155867     -2.99748815
  C     -2.05098319      5.90125712     -2.15430458
  C     -2.73590826      5.28265564     -1.11930314
  H     -3.36455627      5.87825252     -0.46768033
  H     -0.69467256      5.65029321     -3.80175301
  H     -2.15650567      6.96980034     -2.30213263
  H     -1.68581668      2.10832506     -1.62405221
  H     -7.78186732      4.94614779     -1.34298068
  C     -3.71898359      4.18972391      1.73192804
  C     -4.89471065      4.22882996      2.48748413
  C     -5.03091199      5.11741313      3.54246161
  C     -3.99641284      5.98769622      3.85815384
  C     -2.81843606      5.94858569      3.12555475
  C     -2.67193884      5.04583960      2.08364206
  H     -4.10656501      6.69309574      4.67315300
  H     -2.00850718      6.62659836      3.36820788
  H     -1.74030776      5.01366225      1.52983386
  H     -0.45570939      3.20627324     -3.44357087
  H     -5.95252089      5.13726117      4.11237368
  H     -5.71802676      3.57013035      2.23544721
  P      1.41686576      3.28230233      3.50533990
  C      1.85733968      4.94636176      2.91084398
  C      1.03577748      6.06109871      3.08193966
  C      1.41438151      7.29739838      2.57901010
  C      2.61500574      7.43707509      1.89695785
  C      3.43877688      6.33328018      1.71691786
  C      3.06039334      5.09751934      2.21440485
  H      2.90951986      8.40414937      1.50697599
  H      0.10293383      5.96543808      3.62442397
  H      3.70528047      4.23788484      2.07339547
  H      4.37818257      6.43473576      1.18545514
  C      2.77099616      2.87608249      4.64966373
  C      2.96321979      1.53063396      4.97496487
  C      3.97428736      1.14693510      5.84004695
  C      4.81485444      2.10501479      6.39159825
  C      4.63658099      3.44449904      6.07495244
  C      3.62262166      3.83057268      5.21133946
  H      3.49785828      4.87915551      4.96731121
  H      5.60930022      1.80686431      7.06546285
  H      5.29060240      4.19571101      6.50226647
  H      2.31108079      0.77993449      4.54007064
  H      0.76831166      8.15534671      2.72493534
  C     -0.00300896      3.56541809      4.61056394
  C     -1.25824940      3.08384681      4.23613837
  C     -2.36357433      3.28453338      5.04812570
  C     -2.22945251      3.96743825      6.24821536
  C     -0.98412161      4.44528862      6.63586233
  C      0.12216002      4.24575300      5.82560113
  H     -3.09378148      4.12326151      6.88286577
  H     -0.87418146      4.97499898      7.57489830
  H      1.09186033      4.61733090      6.13747920
  H      4.10899884      0.09865367      6.08084034
  H     -3.33341861      2.90884440      4.74223486
  H     -1.36786635      2.54997779      3.29774247
  P     -2.98970175     -4.25339259     -0.00544222
  C     -1.46656175     -5.20539182      0.30002854
  C     -1.13435310     -6.38020419     -0.37734296
  C      0.03828431     -7.05547456     -0.07443018
  C      0.88524143     -6.57875925      0.91692559
  C      0.56452691     -5.41215230      1.59703031
  C     -0.59500003     -4.72412409      1.27901882
  H      1.79786822     -7.11191050      1.15656444
  H     -1.79289655     -6.76797124     -1.14600750
  H     -0.83736401     -3.80126704      1.79499667
  H      1.21929649     -5.03243889      2.37264147
  C     -3.43817151     -4.64363120     -1.72373875
  C     -3.15595916     -3.69186745     -2.70714695
  C     -3.48705826     -3.92036232     -4.03302697
  C     -4.10193020     -5.11055887     -4.39783053
  C     -4.38130798     -6.06849654     -3.43258641
  C     -4.05567787     -5.83904352     -2.10458763
  H     -4.29495294     -6.58637432     -1.35672162
  H     -4.37156390     -5.28747529     -5.43243682
  H     -4.86281628     -6.99792055     -3.71346276
  H     -2.68417193     -2.75678211     -2.42399265
  H      0.28866692     -7.96273740     -0.61188303
  C     -4.23406284     -5.12661708      0.99464232
  C     -3.88735936     -5.77159519      2.18480066
  C     -4.86598420     -6.34238161      2.98428158
  C     -6.20180108     -6.26944008      2.61512222
  C     -6.55894471     -5.62016587      1.44060538
  C     -5.58499085     -5.04570367      0.63881861
  H     -6.96408144     -6.71758651      3.24131004
  H     -7.60031406     -5.55997150      1.14640119
  H     -5.87069471     -4.53878178     -0.27646832
  H     -3.27144126     -3.16523307     -4.78032164
  H     -4.58083033     -6.84673523      3.90043197
  H     -2.84669665     -5.83502308      2.48352711
