#B3LYP/6-31+G(d) OPT FREQ

246, Energy =   -372.18162631 au

0 1
 Au      2.12973252     -4.77597085     -0.70608743
 Au      2.85101740     -3.33539402     -2.80148830
 Au      1.55612599     -2.24242380      4.04611674
 Au      2.08016131     -0.91330148      1.83374456
 Au      1.82678761     -3.70873562      1.84863599
 Au      2.43767660     -2.03353301     -0.56682610
 Au      2.96035172      0.48592154     -0.28577982
 Au      1.42690093     -6.31197386      1.30532109
  P      1.15624699     -0.30296867      5.47534321
  C     -0.23822729     -0.64096340      6.59834293
  C     -0.36361201     -0.07359146      7.86781765
  C     -1.45824474     -0.37450676      8.66362717
  C     -2.43945093     -1.24378589      8.20608171
  C     -2.32277628     -1.81776256      6.94750314
  C     -1.22854290     -1.51997889      6.15139225
  H     -3.29158338     -1.47884774      8.83288810
  H      0.39911694      0.60066837      8.23969463
  H     -1.13065681     -1.97922974      5.17291794
  H     -3.08087606     -2.50364393      6.58747288
  C      0.66399048      1.25024624      4.65905100
  C      1.64247694      2.13073302      4.18744173
  C      1.28697577      3.26343125      3.47376839
  C     -0.05015771      3.52849639      3.20919749
  C     -1.02893913      2.65261283      3.65710892
  C     -0.67666902      1.51963001      4.37432332
  H     -1.44914210      0.84169495      4.72001609
  H     -0.32778965      4.41550635      2.65183131
  H     -2.07373671      2.85238408      3.44871238
  H      2.68866268      1.92930611      4.38850678
  H     -1.54375238      0.07115631      9.64790531
  C      2.54500397      0.17696282      6.54630662
  C      3.57558229     -0.74609116      6.73904441
  C      4.65336107     -0.44528602      7.55660354
  C      4.71914085      0.78856408      8.18922226
  C      3.70701915      1.71966753      7.99683105
  C      2.62667402      1.42055297      7.18129821
  H      5.56154668      1.02748551      8.82767911
  H      3.75872375      2.68644863      8.48419238
  H      1.84817811      2.15934292      7.02853810
  H      2.05708190      3.94063250      3.12140093
  H      5.44383725     -1.17389071      7.69566030
  H      3.53309995     -1.70551614      6.23447900
  P    -18.09261470     -4.27947565      6.06760034
  C    -16.33032188     -4.16648129      5.56513501
  C    -15.25765673     -4.59300187      6.35125833
  C    -13.95399490     -4.44447941      5.90270314
  C    -13.69841192     -3.85950616      4.67002986
  C    -14.75519175     -3.41753799      3.88421709
  C    -16.05811632     -3.56061512      4.33212089
  H    -12.67752162     -3.74283397      4.32427678
  H    -15.43967273     -5.05433212      7.31504351
  H    -16.88025581     -3.20225995      3.72108491
  H    -14.56222865     -2.95395654      2.92324709
  C    -18.71508946     -5.64213766      5.00916084
  C    -20.07469593     -5.96067609      5.12065608
  C    -20.63240380     -6.96642920      4.34880377
  C    -19.84610009     -7.65826061      3.43632707
  C    -18.50162592     -7.33901336      3.30309304
  C    -17.93917145     -6.33567243      4.07725564
  H    -16.88723790     -6.10071014      3.96252526
  H    -20.28218477     -8.44050479      2.82584294
  H    -17.88380266     -7.87510983      2.59126551
  H    -20.69479604     -5.41282313      5.82279407
  H    -13.13256932     -4.78949477      6.52097217
  C    -17.98037911     -5.07748900      7.71593933
  C    -17.56188324     -4.27389659      8.78427300
  C    -17.46515802     -4.79216778     10.06512414
  C    -17.80507378     -6.11745994     10.30532226
  C    -18.23952122     -6.91860009      9.25817527
  C    -18.33335887     -6.40413506      7.97408133
  H    -17.73793852     -6.52261570     11.30839219
  H    -18.50812389     -7.95304427      9.44082918
  H    -18.67271375     -7.04336491      7.16726564
  H    -21.68438262     -7.20639597      4.45309234
  H    -17.13209753     -4.15912442     10.87979831
  H    -17.30954399     -3.23408204      8.60263356
  P     15.85109620     -2.49895673    -16.33615084
  C     16.91281631     -2.10120114    -17.77553054
  C     17.80480066     -2.99978846    -18.36634805
  C     18.58582930     -2.60717659    -19.44230081
  C     18.50109333     -1.31244345    -19.93616656
  C     17.63025133     -0.40436773    -19.34721316
  C     16.85112840     -0.79151411    -18.26965576
  H     19.11760900     -1.00890564    -20.77426920
  H     17.88093205     -4.01487051    -17.99426093
  H     16.18273020     -0.07569923    -17.80208319
  H     17.56461449      0.61011155    -19.72361738
  C     14.17937293     -2.61104146    -17.08056541
  C     13.11293398     -2.88404417    -16.21406918
  C     11.81601182     -2.97052278    -16.69244042
  C     11.55835475     -2.76451111    -18.04189688
  C     12.60432589     -2.47350600    -18.90697580
  C     13.90428639     -2.39029905    -18.43228775
  H     14.70989111     -2.16498468    -19.12137623
  H     10.54311083     -2.82462277    -18.41677448
  H     12.40826990     -2.31032825    -19.96074852
  H     13.30885908     -3.03157031    -15.15683734
  H     19.26506787     -3.31905120    -19.89763756
  C     16.26273103     -4.25230921    -15.99648602
  C     17.49417271     -4.50853225    -15.37938106
  C     17.87809605     -5.80417457    -15.07594516
  C     17.02923208     -6.86538178    -15.36404166
  C     15.79785464     -6.62229481    -15.95734934
  C     15.41178874     -5.32706321    -16.26619690
  H     17.32477375     -7.87940449    -15.12078814
  H     15.13132745     -7.44711735    -16.18331527
  H     14.44847780     -5.15473271    -16.73212465
  H     11.00275945     -3.19158917    -16.01029876
  H     18.83820968     -5.98668221    -14.60686000
  H     18.15358135     -3.68045797    -15.14036195
  P      3.55391576      2.77798605     -0.18117195
  C      2.07687983      3.83310425     -0.04516337
  C      2.11253141      5.13861327      0.45126453
  C      0.95467807      5.89836531      0.50829673
  C     -0.25289285      5.36805506      0.07138147
  C     -0.30105767      4.06990609     -0.41856139
  C      0.85533383      3.30794829     -0.47234363
  H     -1.15523042      5.96661685      0.11378919
  H      3.04846547      5.56383591      0.79463157
  H      0.81641470      2.29110167     -0.84870958
  H     -1.24082624      3.64911006     -0.75681008
  C      4.44264016      3.44605064     -1.61797871
  C      5.83009123      3.29386928     -1.71368155
  C      6.50277298      3.69966122     -2.85556592
  C      5.80079677      4.24670919     -3.92139090
  C      4.42201212      4.38786240     -3.84203193
  C      3.74431319      3.98573829     -2.70157632
  H      2.66719508      4.09863027     -2.64727272
  H      6.32800034      4.56108353     -4.81440580
  H      3.86997454      4.81211692     -4.67277080
  H      6.38398022      2.86571670     -0.88534477
  H      0.99538858      6.91041847      0.89404846
  C      4.58267710      3.21595803      1.25270626
  C      4.60831362      2.33854236      2.33912770
  C      5.34394258      2.63480483      3.47572200
  C      6.07018214      3.81618205      3.54099026
  C      6.06581013      4.69047861      2.46243190
  C      5.33171912      4.39471740      1.32411509
  H      6.64628125      4.05116399      4.42831565
  H      6.64005275      5.60867655      2.50617378
  H      5.34932281      5.07763545      0.48244117
  H      7.57896416      3.58491556     -2.91374360
  H      5.35483460      1.94008799      4.30814845
  H      4.04805964      1.41078379      2.28655060
  P      1.52933668     -4.20501681      5.58611721
  C      3.22917768     -4.61367593      6.09265646
  C      3.51946951     -5.36047077      7.23858801
  C      4.83403873     -5.63148443      7.58395864
  C      5.87628094     -5.16377475      6.79466993
  C      5.60106530     -4.42218576      5.65393095
  C      4.28762953     -4.14769600      5.30806871
  H      6.90283831     -5.37579791      7.06948102
  H      2.71225404     -5.72735451      7.86218962
  H      4.07438701     -3.56667660      4.41679484
  H      6.40994984     -4.05326974      5.03388472
  C      0.95232818     -5.70488714      4.72479781
  C     -0.32591510     -5.68018164      4.15369272
  C     -0.77306536     -6.73014367      3.36902463
  C      0.06404308     -7.81643117      3.11586088
  C      1.33842698     -7.85214876      3.68249068
  C      1.77564789     -6.80522483      4.48455914
  H      2.76635436     -6.84639086      4.92117614
  H     -0.29077083     -8.65038693      2.52429945
  H      1.97863149     -8.71022675      3.52052424
  H     -0.96801178     -4.82103006      4.31741630
  H      5.04546820     -6.21115165      8.47502880
  C      0.62350071     -4.19298622      7.16964466
  C      1.03637142     -3.27393549      8.14116393
  C      0.36894336     -3.17757135      9.35043053
  C     -0.73048968     -3.98765442      9.60457402
  C     -1.15435666     -4.89538265      8.64475641
  C     -0.48454090     -4.99923404      7.43447807
  H     -1.25577140     -3.90950219     10.54909985
  H     -2.01116050     -5.53063001      8.83758659
  H     -0.82280800     -5.71888657      6.69814929
  H     -1.77084182     -6.70568113      2.94811538
  H      0.70403832     -2.46362986     10.09399007
  H      1.89037115     -2.63321008      7.94588512
  P    -13.99566173      9.64759488     -8.23003615
  C    -12.73015322     10.97245068     -8.32273983
  C    -12.07867538     11.51917569     -7.21458256
  C    -11.15203990     12.53775855     -7.37662335
  C    -10.86937159     13.03491908     -8.64160567
  C    -11.52099118     12.51035020     -9.75055558
  C    -12.45047815     11.49584444     -9.59166320
  H    -10.14773859     13.83456238     -8.76277083
  H    -12.28643549     11.14111856     -6.22018722
  H    -12.96846338     11.09839150    -10.45847839
  H    -11.31010808     12.89904882    -10.74032412
  C    -13.08741575      8.18713848     -8.87022114
  C    -13.80162195      6.98595273     -8.96520411
  C    -13.19836306      5.83939336     -9.45514795
  C    -11.87593930      5.87737734     -9.87860316
  C    -11.16312612      7.06646548     -9.80712017
  C    -11.76292350      8.21476244     -9.31292426
  H    -11.19167852      9.13453920     -9.26223200
  H    -11.40433910      4.98324072    -10.26994223
  H    -10.13128399      7.10208032    -10.13867496
  H    -14.83925448      6.95607338     -8.64882493
  H    -10.64781086     12.94537829     -6.50746878
  C    -14.07637577      9.30325284     -6.42946467
  C    -14.75803125     10.23367127     -5.63471756
  C    -14.88155721     10.04329897     -4.26832914
  C    -14.34375005      8.90882622     -3.67401255
  C    -13.68233102      7.96984514     -4.45380223
  C    -13.55314719      8.15986770     -5.82121195
  H    -14.44581597      8.75398795     -2.60600661
  H    -13.26253280      7.08135656     -3.99509574
  H    -13.03184860      7.41796523     -6.41519510
  H    -13.76284246      4.91574202     -9.51504083
  H    -15.40527654     10.77698507     -3.66612431
  H    -15.19165535     11.11411727     -6.09770602
  P      6.47872877     -3.65857470     -4.17526651
  C      5.41026115     -2.15711988     -3.94781546
  C      4.21935943     -1.91176106     -4.64987464
  C      3.49911318     -0.73863478     -4.43736333
  C      3.95338742      0.20333116     -3.52276335
  C      5.12466595     -0.03388664     -2.81613150
  C      5.84217992     -1.20406137     -3.02624611
  H      3.40850350      1.12941563     -3.37729750
  H      3.89629685     -2.59709684     -5.42385879
  H      6.76260268     -1.37563389     -2.47832093
  H      5.49478453      0.70755061     -2.11693965
  C      5.28329044     -4.92304720     -3.53129430
  C      5.56031502     -5.47452445     -2.27889145
  C      4.74282548     -6.45279301     -1.72892653
  C      3.63197753     -6.90769089     -2.43083770
  C      3.33773091     -6.36840716     -3.67819193
  C      4.14902133     -5.37689178     -4.22156981
  H      3.93461162     -5.00441151     -5.21576426
  H      3.01554435     -7.69865723     -2.02119876
  H      2.48417376     -6.72998791     -4.23928783
  H      6.43759122     -5.13969238     -1.73547239
  H      2.59649949     -0.55344490     -5.00745740
  C      6.28637353     -3.92226865     -5.98489814
  C      6.27112597     -2.84684244     -6.87872278
  C      6.23539975     -3.06277214     -8.24807001
  C      6.23444322     -4.35600749     -8.75187475
  C      6.28409826     -5.43360799     -7.87803199
  C      6.32004684     -5.21948165     -6.50907895
  H      6.20390690     -4.52377820     -9.82224171
  H      6.29825553     -6.44666600     -8.26405460
  H      6.36943449     -6.07017673     -5.83761746
  H      4.98403828     -6.87864206     -0.76191352
  H      6.21128623     -2.21554052     -8.92437489
  H      6.28275718     -1.82995062     -6.50106518

