#B3LYP/6-31+G(d) OPT FREQ

246, Energy =   -372.41445870 au

0 1
 Au      1.10287527     -2.41127965     -0.02900501
 Au     -1.90001452      1.91910445     -0.31200613
 Au      2.83660565      1.20757712      2.16388760
 Au      0.72282074     -0.10542489      1.78929894
 Au     -1.11889892     -2.21519609      1.55657288
 Au     -0.81707730     -0.54619320     -0.66269078
 Au     -1.30795729     -3.25372779     -0.95659974
 Au     -0.36243691      1.29308012     -2.46047566
  P      4.92479024      2.23775462      2.45549492
  C      5.17421923      2.85248642      4.14924676
  C      6.15272502      3.79235632      4.48301122
  C      6.32056059      4.18908780      5.80038553
  C      5.52284143      3.65017535      6.80116304
  C      4.55403058      2.70850537      6.48211888
  C      4.38175277      2.31303025      5.16489050
  H      5.65743571      3.96323055      7.82981199
  H      6.78369136      4.21533175      3.70943360
  H      3.62415310      1.57744795      4.91370348
  H      3.93009747      2.28172273      7.25920905
  C      5.32203784      3.64635509      1.38051986
  C      5.95818033      3.45118635      0.15149200
  C      6.20240794      4.52225317     -0.69441365
  C      5.79540018      5.80067109     -0.33550381
  C      5.12855519      6.00070911      0.86616272
  C      4.88859027      4.93251029      1.71585829
  H      4.37106509      5.09843073      2.65445644
  H      5.99487055      6.63905920     -0.99243690
  H      4.79677607      6.99423878      1.14482050
  H      6.27316785      2.45468323     -0.13817794
  H      7.08030264      4.92169046      6.04687093
  C      6.32216789      1.08469010      2.27764156
  C      6.06901275     -0.27937773      2.43187741
  C      7.10366758     -1.20087066      2.38270963
  C      8.40518253     -0.77184236      2.16140471
  C      8.66875245      0.58249811      2.00377423
  C      7.63833823      1.50696723      2.07153131
  H      9.21384074     -1.49182631      2.11636633
  H      9.68415824      0.92223790      1.83595833
  H      7.85827365      2.56315806      1.96515199
  H      6.71337059      4.35737168     -1.63623011
  H      6.89421627     -2.25586585      2.51818697
  H      5.05050085     -0.61814181      2.59219719
  P      3.37911096     -2.99596631     -0.15198778
  C      4.42891834     -1.65566367     -0.79020315
  C      5.81679375     -1.63586004     -0.63207932
  C      6.56846620     -0.60111189     -1.16652361
  C      5.94835359      0.42069094     -1.87378932
  C      4.56877726      0.41456508     -2.03073658
  C      3.81459984     -0.61167388     -1.48573340
  H      6.54046250      1.21664396     -2.31006392
  H      6.30974435     -2.43325052     -0.08800037
  H      2.73619241     -0.61169678     -1.60625682
  H      4.07930043      1.20622648     -2.58682556
  C      3.70021088     -4.42133761     -1.22874518
  C      3.08111557     -5.63072865     -0.89206603
  C      3.21247949     -6.73991617     -1.71003197
  C      3.95282564     -6.65384568     -2.88297538
  C      4.56057504     -5.45613288     -3.23129329
  C      4.43432322     -4.34305726     -2.41279040
  H      4.91057553     -3.41083780     -2.69414060
  H      4.05306108     -7.52086631     -3.52518003
  H      5.13642570     -5.38491172     -4.14676027
  H      2.49561835     -5.69600165      0.01998443
  H      7.64420364     -0.59564659     -1.03386523
  C      4.09364537     -3.47903826      1.44892096
  C      3.53860175     -2.94079533      2.61235002
  C      4.03333804     -3.28563592      3.85961452
  C      5.09048619     -4.18010984      3.96186755
  C      5.64689468     -4.72723265      2.81304242
  C      5.15280067     -4.38308865      1.56345268
  H      5.47680458     -4.45491720      4.93621108
  H      6.46814257     -5.43021854      2.88930456
  H      5.58509955     -4.82503037      0.67309295
  H      2.73438263     -7.67285480     -1.43410823
  H      3.58811389     -2.86075215      4.75210374
  H      2.70481155     -2.25131697      2.53514331
  P      0.19306415      2.39536531     -4.48229269
  C      1.82267306      2.05581703     -5.21024166
  C      2.00422427      1.06447891     -6.17642385
  C      3.27763703      0.74730654     -6.62484685
  C      4.38521521      1.40701680     -6.11057902
  C      4.21715899      2.38853122     -5.14187838
  C      2.94639835      2.70592427     -4.68915709
  H      5.37893709      1.15800301     -6.46387949
  H      1.14423246      0.54430029     -6.58331808
  H      2.81824567      3.47159932     -3.93173644
  H      5.07788655      2.91033822     -4.73884731
  C      0.06391109      4.20893523     -4.44774934
  C     -0.80178832      4.78164089     -3.51359032
  C     -0.98383043      6.15407459     -3.46185643
  C     -0.28752355      6.97803250     -4.33597772
  C      0.58605352      6.42230704     -5.26100942
  C      0.75969625      5.04803340     -5.32235721
  H      1.44297787      4.62496473     -6.04968776
  H     -0.42389917      8.05221534     -4.29443568
  H      1.13361201      7.06224363     -5.94314378
  H     -1.33172829      4.14071601     -2.81649802
  H      3.40459603     -0.01892967     -7.38091504
  C     -1.01225473      1.89501026     -5.75004456
  C     -1.70203251      0.69467442     -5.56204803
  C     -2.65697001      0.27513923     -6.47393608
  C     -2.94233684      1.05564266     -7.58578804
  C     -2.26604721      2.25270640     -7.78241421
  C     -1.30740591      2.67174802     -6.87312102
  H     -3.69361567      0.73321734     -8.29714514
  H     -2.48803902      2.86531331     -8.64846270
  H     -0.78867070      3.61028084     -7.03275429
  H     -1.66513659      6.58060840     -2.73412785
  H     -3.18351120     -0.65876671     -6.31084819
  H     -1.48827673      0.08961444     -4.68703413
  P     -4.36780133      1.83959832     -0.28634303
  C     -5.20019248      0.35585313      0.38166251
  C     -6.51341227      0.35982036      0.85829659
  C     -7.09561742     -0.81134082      1.32121505
  C     -6.37564153     -1.99825871      1.32635218
  C     -5.06188059     -2.00941786      0.87683825
  C     -4.48458082     -0.84185663      0.40637209
  H     -6.83266264     -2.91436196      1.68259462
  H     -7.08061795      1.28360407      0.86914456
  H     -3.45845234     -0.85624650      0.05477198
  H     -4.48408015     -2.92651575      0.89384355
  C     -4.95661701      1.90767358     -2.01117186
  C     -4.13150785      2.53768478     -2.94590311
  C     -4.49071211      2.61275449     -4.28127394
  C     -5.68671512      2.05099587     -4.70693103
  C     -6.51799949      1.42065360     -3.78985455
  C     -6.15790227      1.34713350     -2.45140238
  H     -6.81361713      0.84761420     -1.74728147
  H     -5.96934311      2.10180854     -5.75187929
  H     -7.45537802      0.98562025     -4.11680390
  H     -3.19381603      2.97151781     -2.61595210
  H     -8.11809227     -0.79593781      1.68041976
  C     -5.22571800      3.22301684      0.53393741
  C     -4.85903776      3.50713244      1.85381473
  C     -5.41347827      4.58408959      2.52454202
  C     -6.33566701      5.40084736      1.88220002
  C     -6.70143380      5.13285685      0.57057698
  C     -6.15012264      4.05254908     -0.10310910
  H     -6.76465582      6.24854549      2.40333377
  H     -7.41918134      5.76905015      0.06575485
  H     -6.43864173      3.85481111     -1.12899962
  H     -3.83459838      3.10559163     -4.98979251
  H     -5.12028325      4.79209180      3.54713754
  H     -4.12915424      2.87669192      2.35267996
  P     -2.87957046     -4.66720636     -2.01521215
  C     -2.26779420     -6.23942386     -2.68301262
  C     -3.11168817     -7.32268099     -2.94584949
  C     -2.59130544     -8.50572635     -3.44598277
  C     -1.22831626     -8.62449213     -3.68542723
  C     -0.38158097     -7.55650615     -3.42126787
  C     -0.89763777     -6.37170631     -2.92088721
  H     -0.82546688     -9.55226715     -4.07430819
  H     -4.17512580     -7.23739276     -2.75184056
  H     -0.23544882     -5.53828227     -2.70773750
  H      0.68383407     -7.64621798     -3.60114658
  C     -3.78211981     -3.84441270     -3.35903023
  C     -4.27845259     -2.56150240     -3.10085631
  C     -4.93301697     -1.84837228     -4.09003101
  C     -5.09167222     -2.39999043     -5.35581236
  C     -4.59091179     -3.66588300     -5.62584251
  C     -3.93717566     -4.38522094     -4.63597397
  H     -3.54794851     -5.37252877     -4.85642742
  H     -5.60824255     -1.84300271     -6.12876931
  H     -4.70922025     -4.09795483     -6.61270571
  H     -4.14977281     -2.12520203     -2.11490547
  H     -3.25277210     -9.34020107     -3.64751845
  C     -4.16591907     -5.14031386     -0.81854599
  C     -3.75080508     -5.47521849      0.47478365
  C     -4.67595883     -5.80650835      1.45078221
  C     -6.03258015     -5.79938997      1.15083903
  C     -6.45601634     -5.46704413     -0.12864543
  C     -5.53109386     -5.13907440     -1.10942442
  H     -6.75774956     -6.05209240      1.91549066
  H     -7.51342904     -5.46117491     -0.36631883
  H     -5.87178101     -4.87413813     -2.10366008
  H     -5.31824759     -0.85822716     -3.87518288
  H     -4.33906863     -6.06250602      2.44906862
  H     -2.69169230     -5.47086144      0.71336756
  P     -0.79039323      3.89091792      0.67544996
  C     -1.82069450      5.37958432      0.87068548
  C     -1.70538182      6.26290847      1.94609554
  C     -2.54988303      7.35839446      2.04391961
  C     -3.51424187      7.58849460      1.07222590
  C     -3.63925000      6.71507877     -0.00023308
  C     -2.80375793      5.61429582     -0.09527198
  H     -4.17323752      8.44484205      1.15351936
  H     -0.95535840      6.09008595      2.70960613
  H     -2.91737511      4.91852865     -0.92060469
  H     -4.39687150      6.88405952     -0.75674014
  C      0.67893803      4.47535061     -0.23501761
  C      1.68787742      3.54562366     -0.50871289
  C      2.79510794      3.90279142     -1.25786402
  C      2.90325692      5.19102557     -1.76848820
  C      1.90792253      6.12082450     -1.50769140
  C      0.80447360      5.76831321     -0.74382876
  H      0.03388072      6.50376744     -0.54439683
  H      3.76636763      5.46856389     -2.36174595
  H      1.98711563      7.12722818     -1.90224264
  H      1.60548433      2.53495051     -0.12232130
  H     -2.45412465      8.03542636      2.88486631
  C     -0.13708006      3.57315080      2.34531656
  C     -0.89357679      2.75476252      3.18865786
  C     -0.45743745      2.46383248      4.47083851
  C      0.75114293      2.97511834      4.92456193
  C      1.52064569      3.77413019      4.09000536
  C      1.08267420      4.07204379      2.80728981
  H      1.09460326      2.74997798      5.92746189
  H      2.46388709      4.17595238      4.44099608
  H      1.68945351      4.70064366      2.16595260
  H      3.57872068      3.17654769     -1.44059213
  H     -1.05934668      1.83413954      5.11585830
  H     -1.83390864      2.34705359      2.83244623
  P     -1.38753735     -2.92628343      3.80294498
  C     -3.01466334     -3.54570496      4.31383702
  C     -3.20673895     -4.81951941      4.85180146
  C     -4.48336333     -5.25350857      5.17807813
  C     -5.57768754     -4.42327707      4.97606283
  C     -5.39614767     -3.15607055      4.43729741
  C     -4.12502811     -2.72283094      4.09682737
  H     -6.57286229     -4.76453312      5.23552214
  H     -2.35632063     -5.47101928      5.01662566
  H     -3.98758355     -1.74120544      3.65476623
  H     -6.24731352     -2.50452438      4.27653940
  C     -0.85631189     -1.75693423      5.08964552
  C      0.47346049     -1.32174211      5.05575921
  C      0.94648254     -0.42252218      5.99553224
  C      0.09375760      0.06694707      6.97775146
  C     -1.23281657     -0.34101521      7.00660157
  C     -1.70848565     -1.24692584      6.06907537
  H     -2.74377667     -1.56561909      6.10734623
  H      0.46395726      0.76467952      7.71960371
  H     -1.90201044      0.04153056      7.76839557
  H      1.14229587     -1.70704127      4.29399537
  H     -4.62196614     -6.24366740      5.59623045
  C     -0.22342789     -4.31011248      3.99801386
  C      0.04758906     -5.11220744      2.88595731
  C      0.98546139     -6.12913592      2.95386404
  C      1.67036862     -6.36194417      4.13889605
  C      1.40138799     -5.58229106      5.25549636
  C      0.46249364     -4.56427483      5.18903599
  H      2.41239162     -7.14983912      4.19168173
  H      1.92854648     -5.76426240      6.18479527
  H      0.26624592     -3.95798841      6.06563670
  H      1.98235125     -0.10420492      5.96187237
  H      1.18639160     -6.73584518      2.07809574
  H     -0.48228102     -4.93124768      1.95677135

