246
Energy =   -372.45852088 au
 Au     -1.68637927     -0.03648759      1.18005599
 Au      0.89193338      0.08412289     -0.07750538
 Au     -1.03138204      2.10655565     -0.20750402
 Au      0.29130403      1.49337623      2.22199781
 Au     -3.04990474     -1.08613475     -1.10241265
 Au     -3.84319080      1.19641119     -0.26157608
 Au      1.77644466     -0.39399972     -2.50766306
 Au      2.76416353     -1.70258656     -0.42314938
  P      1.85455629      2.28067112      3.81978731
  C      1.28134595      2.20029326      5.53910555
  C      0.98145202      0.93882231      6.06576613
  C      0.41422430      0.81670428      7.32325357
  C      0.12503278      1.95366504      8.06801082
  C      0.41593053      3.20944713      7.55373598
  C      0.98792886      3.33587762      6.29613793
  H     -0.32533591      1.85945677      9.04901093
  H      1.20315721      0.05177023      5.48243853
  H      1.21329594      4.32071689      5.90298760
  H      0.19513238      4.09830865      8.13323177
  C      2.41255147      3.99111048      3.56439813
  C      1.61212677      4.84133747      2.79724202
  C      1.99154426      6.15543109      2.57318026
  C      3.18360484      6.63219089      3.10060124
  C      3.99170376      5.79276486      3.85634009
  C      3.61108114      4.48061343      4.08972830
  H      4.24713707      3.83047502      4.68002342
  H      3.48407695      7.65782596      2.92144291
  H      4.92397324      6.16220385      4.26735247
  H      0.68104059      4.46836392      2.38331224
  H      0.19329813     -0.16797009      7.71954875
  C      3.38724589      1.30163028      3.77280154
  C      3.81450014      0.83142971      2.52835347
  C      4.99554569      0.11868010      2.40571218
  C      5.76130409     -0.15123359      3.53323748
  C      5.33516316      0.28999802      4.77868074
  C      4.15912777      1.01558557      4.90075622
  H      6.68955191     -0.70280896      3.43987258
  H      5.92599050      0.07497780      5.66146775
  H      3.83773817      1.36009027      5.87691921
  H      1.35686298      6.80517935      1.98131371
  H      5.31981332     -0.22448811      1.42938394
  H      3.21266137      1.03064925      1.64789955
  P     -2.21726056     -1.55962090      2.97563685
  C     -3.14953535     -3.10619552      2.71607603
  C     -2.85147282     -4.30266197      3.37069822
  C     -3.61302139     -5.43875251      3.14170898
  C     -4.68127278     -5.39954798      2.25693136
  C     -4.97572926     -4.22048450      1.58611664
  C     -4.20924445     -3.08702735      1.80423928
  H     -5.27892310     -6.28662724      2.08414219
  H     -2.01731001     -4.35393714      4.06022915
  H     -4.43081229     -2.17634206      1.25678524
  H     -5.80205118     -4.18535816      0.88605979
  C     -3.23360812     -0.60946912      4.15361754
  C     -2.61151618      0.21544161      5.09660378
  C     -3.36149882      1.05349030      5.90715330
  C     -4.74261821      1.10082489      5.77287715
  C     -5.36995474      0.29636479      4.83167726
  C     -4.62362299     -0.55120416      4.02771959
  H     -5.12851958     -1.17473945      3.29858112
  H     -5.32799854      1.76409298      6.39860742
  H     -6.44765743      0.33052952      4.71870737
  H     -1.53174169      0.20041677      5.19994711
  H     -3.36888468     -6.35869041      3.66012576
  C     -0.76884496     -2.02770553      3.97798021
  C      0.50503089     -1.89272804      3.42554047
  C      1.63914110     -2.21023136      4.15618312
  C      1.51466410     -2.68059409      5.45639158
  C      0.25355613     -2.81880683      6.02184061
  C     -0.88007223     -2.49158041      5.29325057
  H      2.39919455     -2.93260312      6.02947808
  H      0.15165685     -3.17927659      7.03878659
  H     -1.85763633     -2.58228034      5.75283205
  H     -2.86200127      1.67466468      6.64225575
  H      2.61848539     -2.08986959      3.70750991
  H      0.60961478     -1.52446589      2.41201255
  P     -2.51869105     -3.35302040     -1.71649045
  C     -4.01763048     -4.33937787     -1.99390622
  C     -3.98373102     -5.64619681     -2.49458175
  C     -5.15926431     -6.35514870     -2.68369221
  C     -6.38416300     -5.77119838     -2.38766618
  C     -6.43240687     -4.46953520     -1.90852463
  C     -5.25690854     -3.76012199     -1.71423699
  H     -7.30120232     -6.32814944     -2.53936824
  H     -3.03348070     -6.10191856     -2.74972642
  H     -5.29437804     -2.73949031     -1.34802174
  H     -7.38604297     -4.00319450     -1.69008922
  C     -1.59522549     -4.23131400     -0.40685935
  C     -0.48296060     -3.58348484      0.13797641
  C      0.30193096     -4.20127355      1.09841260
  C     -0.03004433     -5.46916691      1.55600698
  C     -1.15010591     -6.11006561      1.04672105
  C     -1.92526578     -5.49922094      0.07150807
  H     -2.79817184     -6.01449793     -0.31140869
  H      0.57974244     -5.94943038      2.31233979
  H     -1.42411821     -7.09427478      1.40845399
  H     -0.23211030     -2.58196062     -0.19458060
  H     -5.11909951     -7.36744094     -3.06876371
  C     -1.53033744     -3.73640883     -3.20474913
  C     -2.16437176     -3.77423642     -4.45077331
  C     -1.44041941     -4.02412631     -5.60573147
  C     -0.07178211     -4.24420545     -5.53649989
  C      0.56981054     -4.19642245     -4.30689882
  C     -0.14943589     -3.93017979     -3.15263131
  H      0.49441192     -4.44967156     -6.43737671
  H      1.63743998     -4.37076793     -4.24021265
  H      0.36904094     -3.89080162     -2.20181718
  H      1.17190415     -3.69073917      1.49490869
  H     -1.94886309     -4.05160674     -6.56252153
  H     -3.23472478     -3.61303622     -4.51468590
  P      1.61950285     -0.38018615     -4.86974263
  C      2.51334541     -1.80126235     -5.57747518
  C      2.38239588     -2.22148624     -6.90361183
  C      3.11249906     -3.30199669     -7.37401310
  C      3.99148777     -3.97403306     -6.53463634
  C      4.14043468     -3.55967704     -5.21869829
  C      3.40516802     -2.48366143     -4.74590982
  H      4.56075702     -4.81759584     -6.90672734
  H      1.70753415     -1.70444784     -7.57466281
  H      3.52033758     -2.16622597     -3.71471768
  H      4.82604628     -4.07579723     -4.55612440
  C      2.25654153      1.02370791     -5.83535181
  C      1.43621240      2.11053034     -6.15176774
  C      1.95686106      3.21884237     -6.80204288
  C      3.30344591      3.26462757     -7.13507340
  C      4.12969383      2.19508989     -6.81651985
  C      3.61389114      1.08459594     -6.16623926
  H      4.26491456      0.25182954     -5.92361972
  H      3.70848606      4.13188719     -7.64283679
  H      5.18177390      2.22475788     -7.07496986
  H      0.38184052      2.08251698     -5.90078430
  H      2.99694034     -3.61801072     -8.40420054
  C     -0.12468925     -0.48949164     -5.37924084
  C     -1.08622295     -0.62371324     -4.37596745
  C     -2.43701549     -0.65435234     -4.68126200
  C     -2.85414914     -0.55954321     -6.00128223
  C     -1.90940408     -0.42355890     -7.01059092
  C     -0.55835103     -0.37831992     -6.70432489
  H     -3.90998768     -0.58807079     -6.24268507
  H     -2.22784937     -0.34199529     -8.04324552
  H      0.16181541     -0.24140921     -7.50212707
  H      1.30475083      4.04983190     -7.04622105
  H     -3.16433645     -0.75235178     -3.88256950
  H     -0.76964402     -0.70267076     -3.34126848
  P     -0.12805372      3.85345214     -1.56574175
  C     -0.70345682      3.92624472     -3.28906614
  C     -0.39643318      4.99731861     -4.13323637
  C     -0.89422693      5.03447316     -5.42612500
  C     -1.70511162      4.00744930     -5.89279035
  C     -2.01409324      2.93761840     -5.06301190
  C     -1.51813446      2.89877808     -3.76898888
  H     -2.09992412      4.04289959     -6.90125067
  H      0.22932966      5.80569413     -3.77202805
  H     -1.76489607      2.06489411     -3.11956433
  H     -2.64997822      2.13592467     -5.42057999
  C      1.63021343      3.39351172     -1.66242558
  C      2.37513923      3.38983955     -0.47771986
  C      3.68107533      2.92861671     -0.46027680
  C      4.25896128      2.43474088     -1.62290829
  C      3.52892352      2.42639440     -2.80334231
  C      2.22485177      2.90540441     -2.82529597
  H      1.66924053      2.90475595     -3.75567955
  H      5.27585021      2.06035258     -1.60897456
  H      3.97795516      2.05592370     -3.71769046
  H      1.92419418      3.75496699      0.43865801
  H     -0.65536405      5.87308882     -6.06970838
  C     -0.11753671      5.59859399     -1.04661800
  C     -1.35318911      6.18453366     -0.75687892
  C     -1.43222084      7.50938770     -0.36119918
  C     -0.27459107      8.26722531     -0.24013298
  C      0.95800476      7.69518144     -0.52409103
  C      1.03989197      6.36964362     -0.92695223
  H     -0.33355914      9.30330937      0.07141529
  H      1.86332155      8.28533611     -0.44136744
  H      2.00791668      5.93767474     -1.15207219
  H      4.24819362      2.95179502      0.46327862
  H     -2.39882210      7.95141636     -0.14825695
  H     -2.25799229      5.59377940     -0.85243068
  P      4.29422721     -3.43308311      0.06510421
  C      6.01653490     -2.86765095     -0.00352205
  C      7.07176367     -3.57064640      0.58588897
  C      8.36640923     -3.08120256      0.51111667
  C      8.62658686     -1.88817312     -0.15011765
  C      7.58708044     -1.18236836     -0.74069586
  C      6.29139457     -1.66831044     -0.66591801
  H      9.63967731     -1.50741869     -0.20375175
  H      6.87527160     -4.49979379      1.10865717
  H      5.47795537     -1.11648339     -1.12652290
  H      7.78428031     -0.25002019     -1.25726827
  C      4.16249634     -4.76095252     -1.16905417
  C      2.88427842     -5.25272458     -1.45316454
  C      2.70327912     -6.24395785     -2.40440796
  C      3.79646799     -6.74516813     -3.09939288
  C      5.06793098     -6.25431155     -2.83504223
  C      5.25332723     -5.26952448     -1.87500815
  H      6.25088689     -4.89635943     -1.67400388
  H      3.65684787     -7.51603441     -3.84801843
  H      5.92329895     -6.64366438     -3.37483299
  H      2.02811439     -4.85046081     -0.92157615
  H      9.17626378     -3.63416896      0.97255072
  C      4.17143302     -4.28184280      1.67312595
  C      4.62464461     -3.60958534      2.81325983
  C      4.50274577     -4.18467819      4.06830645
  C      3.90574745     -5.43097958      4.20795219
  C      3.44243589     -6.10190088      3.08508204
  C      3.57414337     -5.53430103      1.82599654
  H      3.80666139     -5.87923777      5.18947320
  H      2.98338695     -7.07858562      3.18643430
  H      3.22047502     -6.07722676      0.95718674
  H      1.70777863     -6.62389905     -2.60360752
  H      4.87640955     -3.65777129      4.93896456
  H      5.08891579     -2.63472277      2.71219072
  P     -4.60974127      3.18087731      0.85100679
  C     -3.39460821      3.89768614      2.01302760
  C     -3.02022375      5.24083514      2.01895966
  C     -2.08402938      5.70963107      2.93026631
  C     -1.51716498      4.84658720      3.85632091
  C     -1.88296659      3.50559810      3.86254194
  C     -2.80943993      3.03598805      2.94561792
  H     -0.79822674      5.21608719      4.57812744
  H     -3.47114431      5.93055442      1.31554453
  H     -3.09866680      1.99081822      2.96200777
  H     -1.45774201      2.82895373      4.59423575
  C     -6.04838233      2.92467692      1.93406728
  C     -6.93754272      1.89811243      1.60639519
  C     -8.03436727      1.63100005      2.40997610
  C     -8.25341480      2.38257395      3.55710632
  C     -7.37319164      3.40198347      3.89550832
  C     -6.27634308      3.67294874      3.09237258
  H     -5.58855574      4.46318288      3.37105692
  H     -9.10881817      2.17273414      4.18830503
  H     -7.53975432      3.98869247      4.79149580
  H     -6.76062939      1.30423983      0.71567451
  H     -1.80405752      6.75675441      2.91950792
  C     -5.03995469      4.56640790     -0.24525339
  C     -4.47164468      4.57631069     -1.52261779
  C     -4.73266277      5.61335666     -2.40477995
  C     -5.57334656      6.65053034     -2.02347485
  C     -6.15458201      6.64390040     -0.76242161
  C     -5.89200277      5.61021947      0.12354819
  H     -5.78219904      7.46030291     -2.71261431
  H     -6.81839993      7.44800258     -0.46686812
  H     -6.35502701      5.60885201      1.10389128
  H     -8.71672477      0.83237871      2.14314580
  H     -4.28324752      5.60776671     -3.39133711
  H     -3.82681663      3.75721008     -1.82594535
