246
Energy =   -372.43927912 au
 Au      2.28590313      1.51772802     -0.01733729
 Au     -0.47144441      0.69759904      0.91107827
 Au      1.20748861     -1.25862556      0.53955140
 Au     -0.45597044     -1.54796518      2.57409288
 Au     -1.85268354      0.82596170     -1.93297578
 Au     -0.04316792     -0.48144293     -3.43903570
 Au      2.35143916     -0.30229759     -1.86298607
 Au     -1.21900280     -1.64774290     -1.33890150
  P     -2.73942658      2.73951683     -3.09584455
  C     -3.60081502      2.15602717     -4.59280745
  C     -4.19043102      3.05664169     -5.48718422
  C     -4.82367512      2.59931493     -6.63110042
  C     -4.88521892      1.23741111     -6.89939720
  C     -4.31668194      0.33319018     -6.01306192
  C     -3.68140002      0.79085323     -4.86833791
  H     -5.38361768      0.88171468     -7.79335489
  H     -4.15281747      4.12102435     -5.28253362
  H     -3.24436447      0.07951775     -4.17677430
  H     -4.36918179     -0.73138136     -6.21004590
  C     -1.41078352      3.78746350     -3.76993649
  C     -0.69554224      4.59575896     -2.88137151
  C      0.34610609      5.39327686     -3.32662491
  C      0.71100595      5.37351232     -4.66720722
  C      0.03032057      4.55041885     -5.55300307
  C     -1.02292835      3.76345352     -5.11081100
  H     -1.54792041      3.13017619     -5.81624444
  H      1.52710298      5.99405038     -5.01785461
  H      0.31706089      4.52013980     -6.59809388
  H     -0.97114466      4.60111689     -1.83343235
  H     -5.27315309      3.30878041     -7.31603774
  C     -3.96112866      3.91639506     -2.42449847
  C     -5.01281868      3.38822143     -1.67042863
  C     -6.02895087      4.20676324     -1.20511657
  C     -6.00903255      5.56654255     -1.48836713
  C     -4.96336663      6.10291603     -2.22747737
  C     -3.94310541      5.28636775     -2.69252463
  H     -6.80823979      6.20682971     -1.13428514
  H     -4.94205323      7.16371881     -2.44863972
  H     -3.13293610      5.71724468     -3.26910941
  H      0.87263721      6.03187472     -2.62607719
  H     -6.84036915      3.78195838     -0.62548137
  H     -5.03800892      2.32453538     -1.45886664
  P     -1.84584933      2.43758368      1.82143104
  C     -3.50210415      1.73109705      2.08624396
  C     -4.17360452      1.72567021      3.30917408
  C     -5.43791956      1.16428564      3.41161858
  C     -6.05167572      0.60598255      2.29968452
  C     -5.38720115      0.59209455      1.07907264
  C     -4.11909134      1.13832500      0.98151886
  H     -7.04432044      0.17950845      2.38232876
  H     -3.70745854      2.15896469      4.18665598
  H     -3.59275876      1.11109365      0.03163161
  H     -5.85731280      0.15764629      0.20445075
  C     -2.20120219      4.09238428      1.13691315
  C     -1.13722731      4.82265495      0.60319282
  C     -1.32837827      6.12487134      0.16461074
  C     -2.58154091      6.71424836      0.25675651
  C     -3.64625923      5.99235226      0.77724417
  C     -3.46260068      4.68746976      1.20774948
  H     -4.30305896      4.13050599      1.60521304
  H     -2.72786830      7.73412297     -0.07853463
  H     -4.62748625      6.44643473      0.84974867
  H     -0.15241990      4.36986643      0.54595971
  H     -5.94691674      1.16741802      4.36846115
  C     -1.24689184      2.88859774      3.48349059
  C     -0.17352150      2.18845072      4.03565455
  C      0.33110486      2.52548622      5.28396493
  C     -0.23191343      3.57305310      6.00015786
  C     -1.29697351      4.28314415      5.45983445
  C     -1.79796080      3.94864104      4.21149300
  H      0.16285500      3.84041132      6.97308979
  H     -1.73714310      5.10523568      6.01197796
  H     -2.61789162      4.52209624      3.79394876
  H     -0.49321292      6.68336103     -0.24153187
  H      1.16828382      1.97149644      5.69286431
  H      0.27715582      1.37447204      3.47943274
  P     -1.64710023     -4.00148545     -0.92203615
  C     -0.74414606     -5.11259554      0.21181106
  C     -1.03814441     -5.10152080      1.57738854
  C     -0.36169692     -5.93637731      2.45293843
  C      0.63435255     -6.78232713      1.98279688
  C      0.95779593     -6.77860401      0.63351045
  C      0.27632777     -5.95053319     -0.24478970
  H      1.15884535     -7.43795137      2.66762459
  H     -1.82033904     -4.45127196      1.95202309
  H      0.53073333     -5.96665195     -1.29767363
  H      1.74153508     -7.42644847      0.25798373
  C     -1.72132605     -4.95234721     -2.47328085
  C     -1.66507117     -4.25140977     -3.68028859
  C     -1.71072219     -4.91522900     -4.89584787
  C     -1.81554992     -6.29894188     -4.92538245
  C     -1.87186724     -7.01070728     -3.73490743
  C     -1.82269375     -6.34722241     -2.51879210
  H     -1.85254548     -6.92098729     -1.59980579
  H     -1.85035303     -6.82161988     -5.87389376
  H     -1.95153626     -8.09144048     -3.75134564
  H     -1.58147500     -3.16996465     -3.66452844
  H     -0.61578374     -5.92928679      3.50662080
  C     -3.34214540     -4.06622384     -0.24796709
  C     -3.82283854     -2.93721038      0.41891503
  C     -5.09367353     -2.92535998      0.97283718
  C     -5.90952704     -4.04301352      0.86108769
  C     -5.44629824     -5.16973620      0.19375945
  C     -4.17328289     -5.18361352     -0.35415948
  H     -6.90588684     -4.03333042      1.28683629
  H     -6.08043891     -6.04346130      0.09899006
  H     -3.82809592     -6.06974637     -0.87322219
  H     -1.66296317     -4.35045222     -5.81989515
  H     -5.44748629     -2.04065549      1.48944522
  H     -3.19096380     -2.05872420      0.50485715
  P      3.14213742      3.19525977      1.44592679
  C      2.34022404      4.79910958      1.76353430
  C      1.57392074      5.02944023      2.90801533
  C      0.95529951      6.25388353      3.10846897
  C      1.09258567      7.26654331      2.16990869
  C      1.83598646      7.04303835      1.01702164
  C      2.44498067      5.81582296      0.80792780
  H      0.61978489      8.22772467      2.33297494
  H      1.47223047      4.24914696      3.65256102
  H      3.02214555      5.64780013     -0.09520106
  H      1.94686173      7.83047855      0.28051119
  C      4.80638456      3.68931828      0.89393227
  C      5.44072564      2.92941199     -0.09030197
  C      6.70659879      3.26780403     -0.54286389
  C      7.36183575      4.37015667     -0.01252909
  C      6.74325501      5.13334453      0.96866091
  C      5.47530180      4.80022384      1.41750739
  H      4.99919452      5.41342506      2.17395214
  H      8.35091257      4.63667010     -0.36577164
  H      7.24926083      5.99662534      1.38483990
  H      4.93244025      2.06732334     -0.50843589
  H      0.36850583      6.41566594      4.00554601
  C      3.43035183      2.48924988      3.09983416
  C      3.14444114      1.13898402      3.30581717
  C      3.35974388      0.54563109      4.53939958
  C      3.86557299      1.29707006      5.59131142
  C      4.15835015      2.64139383      5.39950171
  C      3.94476401      3.23418333      4.16518360
  H      4.03425119      0.83543427      6.55707248
  H      4.55601891      3.23232185      6.21628800
  H      4.17810807      4.28378649      4.02940127
  H      7.18010173      2.67049273     -1.31364439
  H      3.13010451     -0.50409187      4.67857590
  H      2.74646320      0.54813465      2.48825738
  P     -1.42995368     -2.16955628      4.67447128
  C     -2.58677744     -1.03733807      5.52059443
  C     -3.93976643     -1.31105040      5.72336675
  C     -4.75088391     -0.39744004      6.38115951
  C     -4.22809311      0.80498092      6.83654652
  C     -2.88481328      1.09297571      6.63011306
  C     -2.07290510      0.17973692      5.97805930
  H     -4.86292043      1.51348824      7.35522160
  H     -4.36484185     -2.24792819      5.38330256
  H     -1.02197953      0.40243480      5.83121415
  H     -2.46546558      2.02760018      6.98505781
  C     -0.10664318     -2.34694586      5.90863097
  C      1.21672520     -2.42754172      5.47409037
  C      2.25373268     -2.59407419      6.37922186
  C      1.98104232     -2.66864783      7.73799885
  C      0.66962929     -2.57627703      8.18581075
  C     -0.36824326     -2.41871623      7.28114570
  H     -1.38897529     -2.34669404      7.63937419
  H      2.78962477     -2.79693851      8.44791568
  H      0.45318625     -2.63105163      9.24632210
  H      1.43135681     -2.36032287      4.41329695
  H     -5.79576514     -0.63324754      6.54649166
  C     -2.30160918     -3.76726040      4.70363623
  C     -3.37946049     -3.93524768      3.82701010
  C     -4.07936325     -5.13089727      3.78754961
  C     -3.70436865     -6.18313035      4.61193308
  C     -2.62742541     -6.03323789      5.47444918
  C     -1.92787009     -4.83534273      5.52092253
  H     -4.24897502     -7.11926735      4.57936726
  H     -2.32823983     -6.85218806      6.11816618
  H     -1.09044692     -4.73186869      6.20095538
  H      3.27450765     -2.66916908      6.02167430
  H     -4.91598066     -5.24105002      3.10685724
  H     -3.66768697     -3.12033804      3.17132413
  P      2.98382893     -2.90302588      0.33751650
  C      4.51206172     -1.98214893     -0.02432760
  C      5.04552721     -1.16594148      0.97789633
  C      6.14013513     -0.35713385      0.71997414
  C      6.71176239     -0.34235075     -0.54661327
  C      6.18012849     -1.13414950     -1.55416507
  C      5.08617945     -1.94799946     -1.29683327
  H      7.57256338      0.28491663     -0.74570349
  H      4.59898810     -1.17040164      1.96671903
  H      4.68874376     -2.57718173     -2.08402934
  H      6.61927318     -1.12375496     -2.54511158
  C      2.87678809     -4.08460903     -1.04850865
  C      2.01115780     -3.78947651     -2.10306719
  C      1.89795262     -4.63546649     -3.19509806
  C      2.64718011     -5.80354999     -3.24239041
  C      3.50452991     -6.11579399     -2.19510723
  C      3.62046554     -5.26586902     -1.10571937
  H      4.29081015     -5.52331445     -0.29380289
  H      2.55915216     -6.47066902     -4.09165514
  H      4.08834836     -7.02831387     -2.22654264
  H      1.41215374     -2.88675424     -2.06216909
  H      6.54739484      0.26578056      1.50807670
  C      3.45416736     -3.89617683      1.79083502
  C      2.46244317     -4.23134649      2.71342169
  C      2.76628229     -4.97577959      3.84276385
  C      4.07132474     -5.39180238      4.06753285
  C      5.06853294     -5.05912397      3.16031436
  C      4.76648891     -4.31554393      2.03012328
  H      4.31177156     -5.97111653      4.95114363
  H      6.08960497     -5.37796512      3.33442391
  H      5.55484112     -4.04900650      1.33553556
  H      1.22086040     -4.38363089     -4.00346168
  H      1.98332486     -5.22578278      4.54965430
  H      1.44178689     -3.90624445      2.54018642
  P      1.44766103      0.07405364     -5.17818318
  C      0.70536348      0.89942028     -6.61383077
  C      1.44583759      1.74346086     -7.44667228
  C      0.83366222      2.38212350     -8.51372195
  C     -0.51961462      2.18879789     -8.76161833
  C     -1.26288474      1.35259911     -7.93963605
  C     -0.65457134      0.71304236     -6.87028414
  H     -0.99515692      2.69284494     -9.59464425
  H      2.50068503      1.90272064     -7.25273967
  H     -1.23809916      0.06808029     -6.22162334
  H     -2.31988100      1.20049153     -8.12656325
  C      2.48272041     -1.26937046     -5.81880525
  C      3.22857475     -2.00749256     -4.89529479
  C      4.00893613     -3.07410082     -5.30428224
  C      4.04184228     -3.42992551     -6.64713393
  C      3.29414560     -2.71430280     -7.57151148
  C      2.51607964     -1.64060087     -7.16399354
  H      1.93629969     -1.08607951     -7.89281636
  H      4.64828781     -4.26775987     -6.97016811
  H      3.31567375     -2.99219383     -8.61879143
  H      3.19024981     -1.73528377     -3.84361886
  H      1.41571765      3.03394069     -9.15465252
  C      2.63985573      1.29207060     -4.53371281
  C      2.13792736      2.31843595     -3.72582780
  C      2.98935380      3.24303141     -3.14329368
  C      4.35891191      3.15759974     -3.35856956
  C      4.86818211      2.14664270     -4.16070033
  C      4.01766872      1.21927503     -4.74574534
  H      5.02618321      3.87605638     -2.89712634
  H      5.93608921      2.07520178     -4.33157333
  H      4.42942818      0.43122815     -5.36501222
  H      4.58527339     -3.63293677     -4.57582860
  H      2.58224151      4.02869034     -2.51715420
  H      1.06961751      2.38249527     -3.55062701
