#B3LYP/6-31+G(d) OPT FREQ

246, Energy =   -372.44266733 au

0 1
 Au      0.60865096      1.20498546      0.44613485
 Au      0.65659689      1.74193165     -2.10295758
 Au      2.55293907     -1.97408778     -1.93822934
 Au      1.77660332     -1.29940812      0.57179829
 Au     -0.54566853     -2.49742365      1.46805130
 Au      0.57896579     -0.28308157      2.74521965
 Au     -0.64681746      3.34295395     -0.33155089
 Au      3.23053391      0.36693803     -1.12342722
  P     -0.28997308      1.11386584      4.50033807
  C     -2.07444152      0.80765316      4.70867767
  C     -2.72502033      0.74122898      5.94158312
  C     -4.10242277      0.57954271      6.00068087
  C     -4.84976319      0.50697528      4.83377115
  C     -4.21343321      0.58050364      3.60023988
  C     -2.83481358      0.71520147      3.53897886
  H     -5.92646883      0.39581995      4.88224562
  H     -2.15604412      0.81798610      6.86063634
  H     -2.34033411      0.75963447      2.57340003
  H     -4.79315511      0.54069061      2.68527752
  C     -0.32650467      2.92092235      4.22905063
  C      0.35242595      3.48688963      3.15185403
  C      0.26087982      4.84415367      2.88501159
  C     -0.50325127      5.66179874      3.70458237
  C     -1.17084335      5.11508792      4.79291506
  C     -1.08808607      3.75649499      5.05299457
  H     -1.62378059      3.33857722      5.89811967
  H     -0.57884165      6.72286381      3.49720673
  H     -1.76790462      5.74926189      5.43784335
  H      0.95898585      2.85748246      2.51348198
  H     -4.59372341      0.52474386      6.96508268
  C      0.46386648      0.90425083      6.13593052
  C      0.25061957     -0.28580957      6.84003536
  C      0.91057764     -0.52575512      8.03427405
  C      1.80654451      0.41046500      8.53395244
  C      2.03798026      1.58737525      7.83516800
  C      1.37607796      1.83399690      6.64180813
  H      2.32504167      0.22153139      9.46641401
  H      2.73882105      2.31905418      8.22007622
  H      1.56178598      2.75652613      6.10307192
  H      0.79030486      5.25909861      2.03508209
  H      0.72635183     -1.44838030      8.57270000
  H     -0.44325760     -1.02199676      6.45044428
  P      0.37452288     -3.99999845      3.29844242
  C      0.64121925     -5.80206711      3.19587389
  C      1.80130674     -6.44892798      3.62687940
  C      1.90110107     -7.83040166      3.54242418
  C      0.84842413     -8.57907973      3.03361195
  C     -0.30817885     -7.94338027      2.59879398
  C     -0.40878710     -6.56373191      2.67339361
  H      0.92827874     -9.65816597      2.97614804
  H      2.62523772     -5.87279273      4.03187708
  H     -1.31144978     -6.06682867      2.32999646
  H     -1.13217343     -8.52365518      2.19988179
  C     -0.52129990     -3.83244095      4.87875643
  C     -1.55301664     -2.89730053      4.97067714
  C     -2.28019432     -2.75797563      6.14381865
  C     -1.98314872     -3.55321176      7.24213024
  C     -0.95742958     -4.48630001      7.16284554
  C     -0.23326243     -4.62980719      5.99037870
  H      0.56006256     -5.36670936      5.93367519
  H     -2.55282275     -3.44784119      8.15784656
  H     -0.72336079     -5.10961451      8.01795866
  H     -1.78915768     -2.27747047      4.11177213
  H      2.80441287     -8.32363366      3.88201827
  C      2.00937499     -3.27645716      3.64558509
  C      3.02992009     -3.44650690      2.70308074
  C      4.21218725     -2.72860316      2.79954897
  C      4.39109368     -1.81692934      3.83241114
  C      3.38637077     -1.63588444      4.77193618
  C      2.20235321     -2.35483845      4.67716865
  H      5.30916114     -1.24518409      3.90066363
  H      3.51863238     -0.92898946      5.58327181
  H      1.42650754     -2.20439525      5.41842733
  H     -3.08245868     -2.03091206      6.19708209
  H      4.99222797     -2.87635579      2.06184737
  H      2.89282204     -4.14754657      1.88741991
  P      0.47307345      1.47440985     -4.43010092
  C      1.53316118      0.24857318     -5.25391023
  C      1.04842559     -0.75932478     -6.08802257
  C      1.92512229     -1.64846018     -6.69209561
  C      3.29031088     -1.54708018     -6.46817689
  C      3.78211820     -0.55913938     -5.62343484
  C      2.90944697      0.32802784     -5.01544972
  H      3.97211179     -2.24030886     -6.94633435
  H     -0.01653301     -0.84856172     -6.26985220
  H      3.29478372      1.10093882     -4.35773677
  H      4.84763301     -0.47646786     -5.44280209
  C      0.71805162      2.99771079     -5.38915236
  C      0.33121649      4.20294148     -4.79662201
  C      0.48447444      5.40356135     -5.46949711
  C      1.03818150      5.41709745     -6.74327712
  C      1.43253295      4.22707128     -7.33888797
  C      1.27451661      3.02255340     -6.66967630
  H      1.58912432      2.09868154     -7.14122269
  H      1.16544992      6.35587200     -7.26921856
  H      1.86735373      4.23469547     -8.33159403
  H     -0.09225128      4.19287286     -3.79758490
  H      1.53709006     -2.42297041     -7.34335078
  C     -1.23402703      0.97758987     -4.81265958
  C     -2.00723840      0.42396319     -3.79070490
  C     -3.32436943      0.05426338     -4.01561327
  C     -3.88634081      0.22938308     -5.27343672
  C     -3.12773883      0.77932408     -6.29919525
  C     -1.81264844      1.15630605     -6.07229623
  H     -4.91603833     -0.05673450     -5.45259299
  H     -3.56477255      0.92053577     -7.28080073
  H     -1.23276221      1.59923379     -6.87423898
  H      0.17573036      6.32944172     -4.99724353
  H     -3.91317140     -0.36028021     -3.20502463
  H     -1.56927782      0.28496652     -2.80824445
  P      4.32242622      2.38307746     -0.42290908
  C      3.40169491      3.96001537     -0.44663191
  C      3.37253753      4.84749079      0.62993715
  C      2.67996370      6.04649616      0.53440513
  C      1.99875240      6.36977578     -0.63071020
  C      2.01256668      5.49055477     -1.70548437
  C      2.71450227      4.29846143     -1.61586703
  H      1.46203684      7.30807399     -0.70317900
  H      3.89814679      4.60567908      1.54616488
  H      2.74741910      3.62849027     -2.46905861
  H      1.48862845      5.74152848     -2.62042242
  C      5.87112577      2.81892522     -1.26639470
  C      6.42055903      1.91190352     -2.17462372
  C      7.60146026      2.20738626     -2.83785034
  C      8.24503339      3.41464390     -2.60397783
  C      7.70411618      4.32727515     -1.70724748
  C      6.52405096      4.03572967     -1.04274563
  H      6.10270180      4.75464325     -0.34862846
  H      9.16759605      3.64696000     -3.12279850
  H      8.20343635      5.27189215     -1.52541418
  H      5.91452359      0.96984405     -2.35932910
  H      2.68721027      6.73803474      1.36905448
  C      4.77386309      2.18513035      1.33010530
  C      3.73660472      1.92825689      2.23086261
  C      3.99090367      1.70458805      3.57190913
  C      5.30072953      1.71782180      4.03597357
  C      6.34246542      1.95554147      3.15039838
  C      6.08506345      2.18649533      1.80618649
  H      5.50659507      1.54162043      5.08524325
  H      7.36577699      1.96204058      3.50737948
  H      6.90832294      2.37119801      1.12594786
  H      8.01842412      1.49427830     -3.53957864
  H      3.16828878      1.51487410      4.25332597
  H      2.71596624      1.90531710      1.86439882
  P     -2.26099853      5.06065126     -0.44527580
  C     -3.52305089      4.63146756     -1.68620717
  C     -4.87804614      4.93199116     -1.53271714
  C     -5.79250582      4.56650879     -2.50928614
  C     -5.36847018      3.90504125     -3.65404203
  C     -4.02426081      3.59990028     -3.81711031
  C     -3.11170856      3.95089141     -2.83549184
  H     -6.08496496      3.62499627     -4.41724604
  H     -5.22020019      5.45296647     -0.64585557
  H     -2.06510620      3.69229853     -2.95555609
  H     -3.68595317      3.08280702     -4.70761378
  C     -1.74118455      6.74275009     -0.89346729
  C     -1.19835833      7.58364703      0.08334007
  C     -0.70693625      8.83404028     -0.25934633
  C     -0.73301650      9.25434188     -1.58308386
  C     -1.25191558      8.41891175     -2.56284545
  C     -1.75035631      7.17067578     -2.22342285
  H     -2.15696101      6.52668945     -2.99537971
  H     -0.34768384     10.23126217     -1.84975687
  H     -1.27159924      8.74078605     -3.59769085
  H     -1.16573566      7.25732634      1.11728631
  H     -6.84155228      4.80418686     -2.37654553
  C     -3.19849394      5.22874297      1.10067860
  C     -3.24873559      4.12023650      1.94967068
  C     -3.96408312      4.16827356      3.13479155
  C     -4.63595423      5.32912029      3.49343665
  C     -4.59251808      6.43813442      2.65958234
  C     -3.88241451      6.39069731      1.46947582
  H     -5.19112620      5.36900526      4.42322726
  H     -5.11592654      7.34603508      2.93572957
  H     -3.85474135      7.26210653      0.82547205
  H     -0.30233473      9.48127767      0.51010417
  H     -3.99218668      3.29940086      3.78209468
  H     -2.71606896      3.21476296      1.67616242
  P      2.10728442     -4.00520113     -3.10588544
  C      3.47419619     -4.59880203     -4.14856825
  C      3.53924188     -5.89054977     -4.67942157
  C      4.61267298     -6.27021510     -5.46980529
  C      5.63965224     -5.37373606     -5.73381217
  C      5.59674795     -4.09516025     -5.19511178
  C      4.52311972     -3.71343253     -4.40579951
  H      6.47775955     -5.67518044     -6.35094281
  H      2.75516109     -6.60716138     -4.46321007
  H      4.49174406     -2.71683721     -3.97766071
  H      6.40256523     -3.39543611     -5.38460755
  C      0.66465650     -3.86965643     -4.20986859
  C     -0.40996967     -3.10427487     -3.74783923
  C     -1.54015009     -2.93040620     -4.52898275
  C     -1.61225660     -3.51039551     -5.78885400
  C     -0.54889135     -4.26684264     -6.26105640
  C      0.58350524     -4.44475027     -5.47894327
  H      1.41182916     -5.02833199     -5.86345425
  H     -2.49555118     -3.36948810     -6.40072610
  H     -0.59851207     -4.72042964     -7.24409523
  H     -0.35450811     -2.64224896     -2.76666049
  H      4.64909127     -7.27373249     -5.87756935
  C      1.72482592     -5.46088791     -2.08023858
  C      2.28467390     -5.52115181     -0.80276223
  C      2.09172845     -6.63342438      0.00021984
  C      1.32912956     -7.69787922     -0.46053260
  C      0.75851212     -7.64507830     -1.72478327
  C      0.95390076     -6.53405102     -2.53227926
  H      1.17961789     -8.56853383      0.16710308
  H      0.16548879     -8.47608973     -2.08880749
  H      0.50546575     -6.49952134     -3.51875069
  H     -2.36797809     -2.33947168     -4.15506735
  H      2.54113420     -6.67134671      0.98588725
  H      2.88184827     -4.68948016     -0.44330110
  P     -2.77834645     -2.73687504      0.60538312
  C     -3.80888568     -3.59101705      1.83822260
  C     -4.25093568     -2.88434647      2.96111233
  C     -4.92376116     -3.53202676      3.98456817
  C     -5.14740205     -4.90048731      3.91423831
  C     -4.70079940     -5.61509073      2.81136089
  C     -4.03464499     -4.96837421      1.78125912
  H     -5.66734196     -5.40847272      4.71774681
  H     -4.06884550     -1.81769790      3.02988885
  H     -3.69508081     -5.53843911      0.92387337
  H     -4.87173627     -6.68365127      2.75024299
  C     -3.00807660     -3.72754617     -0.90429075
  C     -3.99744487     -3.45548498     -1.85135898
  C     -4.15669227     -4.27833711     -2.95611023
  C     -3.33882845     -5.38746448     -3.12468996
  C     -2.34775386     -5.66169203     -2.19274676
  C     -2.17200364     -4.83122062     -1.09738858
  H     -1.38346386     -5.03880776     -0.38106918
  H     -3.47051771     -6.03470266     -3.98363392
  H     -1.70747328     -6.52622649     -2.31825151
  H     -4.65024422     -2.59949181     -1.72345391
  H     -5.26855087     -2.96531346      4.84214298
  C     -3.66362643     -1.18366305      0.24930622
  C     -2.91611327     -0.09719107     -0.20915539
  C     -3.53002914      1.10439485     -0.52207703
  C     -4.90204563      1.24670106     -0.37087887
  C     -5.65692244      0.17532661      0.08798952
  C     -5.04573860     -1.03297598      0.39220542
  H     -5.37975691      2.19003915     -0.60986634
  H     -6.72932584      0.27792622      0.20591064
  H     -5.64507650     -1.86290284      0.74821893
  H     -4.92920336     -4.05616528     -3.68314584
  H     -2.93335773      1.93335660     -0.88590554
  H     -1.84148388     -0.19738403     -0.32050651

