#B3LYP/6-31+G(d) OPT FREQ

246, Energy =   -372.45262472 au

0 1
 Au     -2.45120236      0.44538015     -0.41505079
 Au      0.56126565     -1.39957322      0.90077536
 Au     -0.26643721      0.11339080     -1.66608274
 Au      1.50197284     -1.23795201     -3.36037564
 Au      2.60012922     -0.27418625     -1.13783624
 Au      1.83383378      1.41796139     -3.06416126
 Au      0.03219669      1.14462960      1.11353710
 Au     -0.40966107     -0.42352466      3.23711334
  P     -1.34849956     -1.17830289      5.28948422
  C     -2.02715878     -2.85819667      5.12824601
  C     -2.07397664     -3.78062425      6.17720708
  C     -2.64815077     -5.02927449      5.99004301
  C     -3.19311920     -5.37143422      4.75990559
  C     -3.15533576     -4.46186251      3.71155578
  C     -2.57102292     -3.21753016      3.89272584
  H     -3.64591725     -6.34545943      4.61680809
  H     -1.65498871     -3.52450970      7.14338512
  H     -2.53761220     -2.51200368      3.06867367
  H     -3.58392244     -4.71995134      2.75011884
  C     -2.75325219     -0.24502280      5.98228932
  C     -2.93356984      1.08621774      5.60455799
  C     -3.98713745      1.82972221      6.11503864
  C     -4.88128987      1.24935526      7.00284477
  C     -4.71494686     -0.07595150      7.38280544
  C     -3.65907989     -0.81914760      6.87894584
  H     -3.53789955     -1.85191843      7.18502046
  H     -5.70778992      1.82847741      7.39736139
  H     -5.41033849     -0.53443348      8.07612656
  H     -2.24157163      1.53761881      4.90254501
  H     -2.67537441     -5.73500524      6.81206082
  C     -0.17551479     -1.26802432      6.67415898
  C      0.74140904     -2.32224803      6.74461288
  C      1.70825715     -2.34974245      7.73793067
  C      1.78732363     -1.31625426      8.66191550
  C      0.89584213     -0.25465358      8.58821098
  C     -0.07677899     -0.22661577      7.60019899
  H      2.54430061     -1.33743881      9.43690510
  H      0.95581247      0.55647346      9.30462283
  H     -0.77012371      0.60586146      7.55143065
  H     -4.11185247      2.86320386      5.81334407
  H      2.40341772     -3.18017030      7.78665996
  H      0.68940038     -3.12929064      6.02188111
  P      0.82679201     -3.78511225      0.77305092
  C     -0.82649402     -4.51576200      0.54604287
  C     -1.06572776     -5.89012410      0.64169382
  C     -2.34438451     -6.39550229      0.46793606
  C     -3.40373070     -5.53975127      0.18921592
  C     -3.17654446     -4.17390098      0.08293244
  C     -1.89839202     -3.66880973      0.26210399
  H     -4.40230876     -5.93709001      0.05131708
  H     -0.24719806     -6.56803654      0.85471013
  H     -1.72716116     -2.60134932      0.18031256
  H     -3.99477392     -3.49891330     -0.13821284
  C      1.37259990     -4.42786128      2.38512546
  C      2.73886224     -4.40460158      2.68678951
  C      3.19391929     -4.79844758      3.93481863
  C      2.29201174     -5.22265482      4.90225305
  C      0.93366620     -5.24692681      4.61497633
  C      0.47548908     -4.84339203      3.36911118
  H     -0.58697329     -4.86200214      3.15705946
  H      2.64736694     -5.53812149      5.87611971
  H      0.22421718     -5.58919827      5.35991916
  H      3.44824264     -4.09535102      1.92722110
  H     -2.51592136     -7.46244367      0.54944748
  C      1.86633104     -4.73758567     -0.39235569
  C      2.18481199     -4.17042457     -1.62481302
  C      2.94826018     -4.85524181     -2.55592684
  C      3.40964900     -6.13134742     -2.26367457
  C      3.10626118     -6.70872342     -1.03749262
  C      2.34358286     -6.01996734     -0.10679252
  H      4.00699983     -6.67244985     -2.98788201
  H      3.46789331     -7.70278591     -0.80162373
  H      2.12639083     -6.47968617      0.85025095
  H      4.25641955     -4.77871499      4.14922199
  H      3.18483954     -4.39034964     -3.50623205
  H      1.83064553     -3.17105273     -1.85418580
  P      0.06725787      3.54623492      1.14437537
  C     -1.43195171      4.51933978      0.76417844
  C     -1.72742793      5.73170621      1.39439889
  C     -2.91314411      6.39637422      1.12122446
  C     -3.82973670      5.85550790      0.23008891
  C     -3.54584676      4.65408572     -0.40456456
  C     -2.35218121      3.99936762     -0.14676592
  H     -4.76598920      6.36489365      0.03521012
  H     -1.03468953      6.15117533      2.11479527
  H     -2.13665906      3.06152706     -0.64860268
  H     -4.26069741      4.21915755     -1.09364231
  C      1.36597062      4.31625584      0.12452605
  C      2.48075648      3.54240829     -0.20399131
  C      3.54759798      4.09338163     -0.89516442
  C      3.51120561      5.42713946     -1.27911859
  C      2.39638747      6.19978002     -0.98498391
  C      1.32926500      5.64956292     -0.28923130
  H      0.46182128      6.26095589     -0.06815408
  H      4.34857399      5.86075271     -1.81288280
  H      2.36093317      7.23988497     -1.28763583
  H      2.51266501      2.50063480      0.09814596
  H     -3.12821758      7.33444627      1.61956122
  C      0.48822584      4.11703990      2.82624758
  C     -0.00292667      3.37292462      3.90177094
  C      0.24890427      3.75369178      5.20995842
  C      1.01382574      4.88435719      5.46519908
  C      1.52489252      5.62298207      4.40681961
  C      1.26413596      5.24633648      3.09731275
  H      1.21721004      5.18404730      6.48639390
  H      2.13094431      6.50045963      4.60022224
  H      1.67460662      5.83142911      2.28242411
  H      4.41273254      3.48246819     -1.12501364
  H     -0.14568394      3.16218920      6.02850172
  H     -0.57416149      2.47212271      3.70727651
  P      1.44095298      3.29367155     -4.43770555
  C      1.07248895      2.76965478     -6.14251368
  C      0.20724245      3.47252825     -6.98421021
  C      0.02014284      3.06334251     -8.29561314
  C      0.69723556      1.95530635     -8.78628323
  C      1.55765847      1.24826596     -7.95728475
  C      1.74041608      1.65001483     -6.64421349
  H      0.55271480      1.64042742     -9.81294094
  H     -0.32336366      4.34173123     -6.61300944
  H      2.40985774      1.09270378     -5.99673828
  H      2.08465879      0.37918438     -8.33411618
  C      2.80207045      4.46930567     -4.69415449
  C      4.07136414      4.13586818     -4.21871993
  C      5.15055895      4.97953309     -4.43432539
  C      4.97304445      6.16665630     -5.13147489
  C      3.71704287      6.50186173     -5.62089530
  C      2.63785855      5.65851528     -5.41135686
  H      1.66450402      5.91946237     -5.81154122
  H      5.81450046      6.82827604     -5.29984287
  H      3.57808427      7.42315601     -6.17445473
  H      4.20924563      3.20684655     -3.67517564
  H     -0.65503029      3.61633779     -8.93820242
  C     -0.01609405      4.26104050     -3.95259875
  C     -1.26911805      3.64498403     -4.04771926
  C     -2.41574421      4.31816518     -3.66203888
  C     -2.32686205      5.60995692     -3.15751836
  C     -1.08611562      6.21558885     -3.02304880
  C      0.06359786      5.54595616     -3.41528663
  H     -3.22448864      6.14079524     -2.86368744
  H     -1.01120693      7.21752187     -2.61639971
  H      1.02815271      6.02826114     -3.30777654
  H      6.13052261      4.70697539     -4.05953437
  H     -3.38185788      3.83540970     -3.75716977
  H     -1.34101619      2.63500134     -4.43853949
  P     -4.52069544      0.75912717      0.70275332
  C     -4.62003723      2.19211224      1.82971482
  C     -5.80347856      2.90377550      2.04000754
  C     -5.82334477      4.00509676      2.88109635
  C     -4.66275089      4.41689645      3.52192627
  C     -3.48084541      3.71659814      3.32262106
  C     -3.46175026      2.61246770      2.48434103
  H     -4.67588013      5.28627819      4.16853215
  H     -6.71461734      2.60080971      1.53743344
  H     -2.53345520      2.07492419      2.31932144
  H     -2.56811934      4.04147854      3.80904847
  C     -5.14763644     -0.61651989      1.71574659
  C     -5.68578169     -1.74338915      1.08632448
  C     -6.11541932     -2.82917430      1.83344845
  C     -6.00256221     -2.81151515      3.21751558
  C     -5.45385850     -1.70475742      3.85052467
  C     -5.02388373     -0.61648593      3.10667217
  H     -4.59902150      0.24432935      3.61111532
  H     -6.34081276     -3.65926997      3.80156068
  H     -5.35961333     -1.68663310      4.93047449
  H     -5.78243225     -1.75984938      0.00603123
  H     -6.74887052      4.54856240      3.03131200
  C     -5.84197987      1.07782361     -0.50184656
  C     -5.47614416      1.64226410     -1.72641252
  C     -6.43362062      1.95510617     -2.67765102
  C     -7.77404217      1.70050975     -2.42050682
  C     -8.15010902      1.12910202     -1.21241362
  C     -7.19402538      0.81993526     -0.25693554
  H     -8.52470434      1.94213072     -3.16371372
  H     -9.19492537      0.92310872     -1.01100474
  H     -7.49810155      0.36739701      0.68005532
  H     -6.54342811     -3.69042474      1.33341749
  H     -6.13227884      2.39402873     -3.62202953
  H     -4.42725831      1.82881022     -1.93302330
  P      0.75679700     -2.60039418     -5.15031191
  C     -0.39240068     -3.95976131     -4.77253870
  C     -0.91276069     -4.76874545     -5.78858273
  C     -1.78923286     -5.79787023     -5.48709342
  C     -2.16180510     -6.03229412     -4.16985647
  C     -1.66095703     -5.22801830     -3.15654923
  C     -0.78508301     -4.19543308     -3.45474941
  H     -2.84516445     -6.83962085     -3.93391287
  H     -0.62999821     -4.58822861     -6.81971024
  H     -0.40187349     -3.56641150     -2.65803405
  H     -1.95421512     -5.40536098     -2.12908464
  C      2.08296583     -3.35803394     -6.13152770
  C      2.94614409     -2.51189478     -6.83628440
  C      4.02405111     -3.02773932     -7.53606943
  C      4.26758197     -4.39532841     -7.52843612
  C      3.43014021     -5.24212762     -6.81636159
  C      2.34656295     -4.72974263     -6.11804194
  H      1.69766971     -5.40127630     -5.56748696
  H      5.11182074     -4.79911349     -8.07458452
  H      3.61901154     -6.30933868     -6.80297033
  H      2.76439244     -1.44209346     -6.83505629
  H     -2.18279323     -6.41909628     -6.28311019
  C     -0.19313431     -1.60227627     -6.34134214
  C     -0.96860457     -0.55271141     -5.84229213
  C     -1.75408923      0.21258423     -6.68833823
  C     -1.77457470     -0.05977993     -8.04975801
  C     -1.00279474     -1.09542928     -8.55885217
  C     -0.21576484     -1.86279784     -7.71337562
  H     -2.38776395      0.53805882     -8.71362771
  H     -1.01268036     -1.30836162     -9.62145428
  H      0.38728883     -2.66507360     -8.12267360
  H      4.67788829     -2.36071026     -8.08591139
  H     -2.34847878      1.02463072     -6.28474622
  H     -0.95375383     -0.33603776     -4.77894545
  P      4.16970167     -0.25087272      0.68255325
  C      5.53597811      0.91532239      0.38519029
  C      6.36244717      1.39396011      1.40572124
  C      7.40351668      2.26166958      1.11541561
  C      7.64075922      2.65881202     -0.19371063
  C      6.83346870      2.18183995     -1.21727608
  C      5.78827375      1.31741654     -0.92866360
  H      8.45556607      3.33753221     -0.41626334
  H      6.19033540      1.08857759      2.43150346
  H      5.15938746      0.94493555     -1.73045429
  H      7.01609231      2.48228117     -2.24272289
  C      5.02788940     -1.83804449      0.92183438
  C      4.90893886     -2.81871853     -0.06411309
  C      5.55530653     -4.03823488      0.06817475
  C      6.33021884     -4.29347464      1.19098804
  C      6.46212359     -3.32260833      2.17590559
  C      5.81998621     -2.10195878      2.04378546
  H      5.93046943     -1.35056355      2.81743292
  H      6.83307471     -5.24727184      1.29833028
  H      7.07071128     -3.51630862      3.05151360
  H      4.29831168     -2.62274633     -0.93911059
  H      8.03442210      2.62794470      1.91690282
  C      3.56527644      0.16771936      2.34480450
  C      3.45014273      1.49862528      2.75749934
  C      2.91143086      1.80994303      3.99612059
  C      2.45533801      0.80215506      4.83506285
  C      2.54559012     -0.52258985      4.42712632
  C      3.09096241     -0.83729128      3.19146852
  H      2.03385993      1.04531675      5.80352610
  H      2.20873620     -1.31857711      5.07959652
  H      3.15980183     -1.87608855      2.89054088
  H      5.45018712     -4.79019710     -0.70554199
  H      2.85148216      2.84563974      4.30844163
  H      3.79980665      2.29663568      2.11230007

