#B3LYP/6-31+G(d) OPT FREQ

246, Energy =   -372.43762355 au

0 1
 Au     -0.32423340      0.00191590      0.03770843
 Au      3.78309347     -2.28911948      2.06539360
 Au      1.20569330     -1.59079983     -1.76401102
 Au      0.12411933      2.55615017      0.81386738
 Au      1.42882078     -2.01005343      0.82871229
 Au     -2.29640200      1.68980844     -0.07299640
 Au      1.63086039     -2.46315869      3.46240643
 Au     -0.88916832     -2.66978879     -0.31780349
  P      5.56460439     -2.69248823      0.49356895
  C      6.53688486     -1.31015576     -0.18306037
  C      7.78329667     -0.97303912      0.35014738
  C      8.46360187      0.14756022     -0.10198207
  C      7.90772645      0.95344082     -1.08612684
  C      6.66292229      0.63741848     -1.61403947
  C      5.97719166     -0.47845103     -1.15969235
  H      8.44127460      1.82776454     -1.43979249
  H      8.22591551     -1.59518800      1.11979816
  H      5.00036428     -0.71351579     -1.56984842
  H      6.21894024      1.26662669     -2.37704750
  C      4.85629650     -3.47839616     -0.99929651
  C      3.63725206     -4.14958452     -0.88140889
  C      3.04157688     -4.75309386     -1.97885625
  C      3.66937348     -4.71389107     -3.21646021
  C      4.89509455     -4.07476857     -3.34347708
  C      5.48258554     -3.45785010     -2.24806035
  H      6.43396506     -2.95285687     -2.36965356
  H      3.20851602     -5.18461147     -4.07697766
  H      5.39637200     -4.05058106     -4.30415218
  H      3.15131839     -4.20653238      0.08564980
  H      9.43308029      0.39177164      0.31642153
  C      6.80468501     -3.90491329      1.03825165
  C      6.66699914     -4.47328182      2.30608985
  C      7.57279108     -5.42070894      2.75723569
  C      8.62776267     -5.81231547      1.94539777
  C      8.77516152     -5.25386682      0.68182949
  C      7.87131049     -4.30768765      0.22779659
  H      9.33648910     -6.55312038      2.29632531
  H      9.59862658     -5.55772925      0.04602880
  H      7.99280036     -3.87731380     -0.76007402
  H      2.09164437     -5.26290980     -1.86228447
  H      7.45418184     -5.85280247      3.74407005
  H      5.84245098     -4.16510370      2.94102881
  P     -0.49142792     -3.11828546      4.38630701
  C     -1.83221599     -1.94875952      3.97624328
  C     -3.18216546     -2.24826234      4.18215208
  C     -4.16471186     -1.31257993      3.90050436
  C     -3.81515277     -0.05490698      3.42693057
  C     -2.48027490      0.25049532      3.20924188
  C     -1.49833455     -0.69377874      3.46796619
  H     -4.58088335      0.68565877      3.22991335
  H     -3.46502408     -3.21939488      4.57141306
  H     -0.45700417     -0.44946336      3.29261751
  H     -2.20055630      1.23354251      2.84849158
  C     -0.70427512     -3.44189860      6.16462388
  C      0.07443341     -4.45977628      6.72726111
  C      0.00712510     -4.73016284      8.08384980
  C     -0.82824695     -3.98049432      8.90203170
  C     -1.59439802     -2.95985628      8.35729939
  C     -1.53247976     -2.68739750      6.99823015
  H     -2.13463550     -1.88606841      6.58565320
  H     -0.87908943     -4.19007083      9.96390588
  H     -2.24538517     -2.36954215      8.99180653
  H      0.73186691     -5.04391364      6.09143530
  H     -5.20722861     -1.56155066      4.06235191
  C     -1.07723894     -4.66950794      3.61990481
  C     -0.58682617     -5.02213053      2.36064726
  C     -1.03011601     -6.16565933      1.71438823
  C     -1.97041246     -6.98456426      2.32473002
  C     -2.45291464     -6.65796725      3.58502279
  C     -2.01022654     -5.51281720      4.23016140
  H     -2.31867598     -7.87974712      1.82313741
  H     -3.17739260     -7.30041878      4.07189978
  H     -2.38459121     -5.27865246      5.22007706
  H      0.61059826     -5.52600393      8.50451690
  H     -0.63707320     -6.41849649      0.73600862
  H      0.16127937     -4.39696066      1.88616390
  P      1.15202747      2.68168281      3.10670499
  C      0.99096246      1.52742641      4.52028286
  C      1.94892743      0.55219383      4.80710361
  C      1.77478041     -0.31456447      5.87790883
  C      0.63949601     -0.22385495      6.67212940
  C     -0.32827769      0.72941471      6.38508281
  C     -0.15731856      1.59508135      5.31625805
  H      0.51176721     -0.89076819      7.51617745
  H      2.85120554      0.48726771      4.21117025
  H     -0.91443913      2.34221020      5.10234412
  H     -1.21776460      0.80330489      7.00010044
  C      0.95197989      4.29620790      3.92728445
  C      0.28690471      5.30953698      3.23495354
  C      0.11321854      6.56272615      3.80113736
  C      0.59755270      6.81904901      5.07627902
  C      1.24298053      5.81425014      5.78489731
  C      1.41615273      4.56031214      5.22029203
  H      1.90325953      3.77768113      5.79073640
  H      0.46536418      7.79836290      5.52087837
  H      1.61194339      6.00681394      6.78561863
  H     -0.09726084      5.10943277      2.24023145
  H      2.54414685     -1.04226580      6.10762454
  C      2.93304791      2.54516937      2.73481643
  C      3.29001996      1.66561399      1.70929198
  C      4.61556259      1.48801454      1.35262813
  C      5.61272431      2.18980344      2.01620137
  C      5.27238011      3.06973792      3.03454766
  C      3.94354508      3.24856790      3.39193345
  H      6.65066793      2.05364996      1.73488532
  H      6.04574859      3.62309705      3.55458715
  H      3.69297167      3.94856991      4.18038152
  H     -0.39896298      7.33936309      3.24468206
  H      4.86633113      0.80716646      0.54843571
  H      2.51527334      1.11849023      1.18220990
  P     -4.41332908      2.73571803     -0.19601695
  C     -5.79566031      1.84233670      0.57898269
  C     -6.95694978      2.48701997      1.01331869
  C     -7.98358306      1.76253343      1.59785843
  C     -7.86667017      0.38798178      1.75728110
  C     -6.71610704     -0.26199727      1.33306679
  C     -5.68610075      0.46068026      0.75092321
  H     -8.67037025     -0.17609990      2.21579844
  H     -7.05393424      3.56049041      0.89614187
  H     -4.78310986     -0.04811629      0.42967143
  H     -6.61719720     -1.33437344      1.45803024
  C     -5.01108631      3.15784610     -1.85918408
  C     -4.22284641      4.01626491     -2.63328435
  C     -4.58067669      4.32094787     -3.93608600
  C     -5.72218188      3.75760143     -4.49241858
  C     -6.50342197      2.89310657     -3.73866676
  C     -6.15170942      2.59070937     -2.43075280
  H     -6.77140388      1.91834897     -1.84857418
  H     -6.00167519      3.99315641     -5.51247281
  H     -7.39486679      2.45140501     -4.16880179
  H     -3.33022416      4.45535493     -2.20045564
  H     -8.87893333      2.27382228      1.93158297
  C     -4.35501565      4.32896417      0.67863957
  C     -3.49289538      4.43514900      1.77359415
  C     -3.38459514      5.62295162      2.47865273
  C     -4.13438103      6.72687868      2.09439410
  C     -4.99407723      6.63467063      1.00794886
  C     -5.10655331      5.44489766      0.30292055
  H     -4.04698314      7.65919615      2.63968949
  H     -5.58199107      7.49383170      0.70666754
  H     -5.77405668      5.38552808     -0.54901923
  H     -3.96597282      4.99842527     -4.51808399
  H     -2.71083768      5.68716101      3.32567294
  H     -2.90114611      3.57539762      2.07126015
  P      1.14823692      4.40121198     -0.50872744
  C     -0.03119843      5.39418796     -1.48541313
  C     -1.20747879      5.79356488     -0.84248241
  C     -2.14158673      6.58068424     -1.49845917
  C     -1.92556664      6.96195271     -2.81676304
  C     -0.77437069      6.54933346     -3.47309410
  C      0.16887433      5.77456746     -2.81276746
  H     -2.65542284      7.57607433     -3.33086743
  H     -1.39167009      5.48143181      0.18069910
  H      1.06518222      5.46524944     -3.33776965
  H     -0.60255225      6.83928281     -4.50325540
  C      2.36621628      3.78047946     -1.71525895
  C      2.42436065      2.40938835     -1.96219681
  C      3.33965268      1.88927050     -2.86246369
  C      4.20939174      2.73284050     -3.53906886
  C      4.17376108      4.09892348     -3.29080666
  C      3.26613347      4.61940048     -2.38191288
  H      3.26058249      5.68432485     -2.17926996
  H      4.91325883      2.32630233     -4.25609546
  H      4.85859808      4.76239078     -3.80593341
  H      1.74502872      1.74237347     -1.44235456
  H     -3.03862923      6.89789766     -0.97902481
  C      2.11744810      5.67326550      0.37186921
  C      3.39123523      5.33113160      0.83752248
  C      4.12832495      6.22467107      1.59700759
  C      3.60418987      7.47196295      1.90946112
  C      2.34214411      7.82274644      1.45137796
  C      1.60047813      6.93037917      0.69176200
  H      4.17971694      8.16962308      2.50615178
  H      1.92929188      8.79697222      1.68636660
  H      0.61601941      7.21833662      0.34079437
  H      3.37086877      0.82043125     -3.03646134
  H      5.11485362      5.94337940      1.94739246
  H      3.80744863      4.35934893      0.59525727
  P     -2.90110954     -3.61389892     -1.09983541
  C     -2.67833238     -5.28694574     -1.76798781
  C     -3.75324200     -6.12488748     -2.07922437
  C     -3.52569297     -7.39607404     -2.58244565
  C     -2.22781871     -7.85029932     -2.77670823
  C     -1.15238261     -7.02971705     -2.46371084
  C     -1.37772318     -5.75793849     -1.96011312
  H     -2.05439016     -8.84610965     -3.16704648
  H     -4.76924277     -5.78116122     -1.92018339
  H     -0.53782459     -5.11696845     -1.71151518
  H     -0.13688827     -7.38135474     -2.60484692
  C     -3.55099294     -2.61426052     -2.47367097
  C     -3.75533266     -1.25216741     -2.23092727
  C     -4.25689223     -0.42431674     -3.22086878
  C     -4.54116961     -0.94013653     -4.47885124
  C     -4.32346419     -2.28564685     -4.73663162
  C     -3.83186617     -3.11986664     -3.74269356
  H     -3.66654583     -4.16957081     -3.95639955
  H     -4.93032260     -0.29205863     -5.25529738
  H     -4.54076623     -2.69305305     -5.71708675
  H     -3.52447223     -0.84333601     -1.25212275
  H     -4.36656132     -8.03675955     -2.82105474
  C     -4.33179079     -3.76987155      0.01375986
  C     -4.09538386     -4.12630939      1.34298990
  C     -5.15132970     -4.32720109      2.21716621
  C     -6.45787123     -4.15342744      1.78077574
  C     -6.70314469     -3.77825082      0.46603616
  C     -5.64902028     -3.59060108     -0.41571385
  H     -7.28439408     -4.30953343      2.46380824
  H     -7.72125978     -3.64121542      0.12075189
  H     -5.85091791     -3.30201742     -1.44072489
  H     -4.43085797      0.62445376     -3.00961511
  H     -4.95310098     -4.62406158      3.24065208
  H     -3.07499402     -4.24888920      1.68775609
  P      1.11327440     -1.11716986     -4.07857321
  C      2.60151629     -1.08106002     -5.12220515
  C      2.54024987     -0.90418346     -6.50781027
  C      3.70501347     -0.85375643     -7.25682801
  C      4.94227021     -0.97754361     -6.63739057
  C      5.01337552     -1.16743662     -5.26456614
  C      3.84924326     -1.22610951     -4.51358812
  H      5.85038649     -0.93201575     -7.22678825
  H      1.57823864     -0.81052454     -6.99917081
  H      3.90334882     -1.39632478     -3.44378423
  H      5.97507322     -1.27137877     -4.77526105
  C      0.32263569      0.50675162     -4.28874861
  C     -0.90821514      0.69862247     -3.65192649
  C     -1.53429020      1.93229241     -3.68313735
  C     -0.93991527      2.99753183     -4.34693878
  C      0.28236548      2.82073216     -4.97824500
  C      0.91356473      1.58524508     -4.94717364
  H      1.87221004      1.46223947     -5.43747187
  H     -1.42905807      3.96424220     -4.36796025
  H      0.75183569      3.64904052     -5.49628171
  H     -1.37681696     -0.13044793     -3.13160583
  H      3.64714475     -0.71576096     -8.33019557
  C     -0.00998226     -2.25853601     -4.94222098
  C     -0.00632695     -3.59932404     -4.55043451
  C     -0.81093084     -4.52576480     -5.19371280
  C     -1.63198505     -4.12341998     -6.23891285
  C     -1.65138423     -2.79107077     -6.62966835
  C     -0.84971545     -1.86113691     -5.98499392
  H     -2.25814629     -4.84765182     -6.74644122
  H     -2.29291951     -2.47276304     -7.44317357
  H     -0.87974460     -0.82136232     -6.29004663
  H     -2.48943355      2.06591973     -3.18822180
  H     -0.79741583     -5.56278578     -4.87827515
  H      0.63591422     -3.91324742     -3.73398057

