#B3LYP/6-31+G(d) OPT FREQ

246, Energy =   -372.43376837 au

0 1
 Au     -2.88068038     -0.14796699      0.52084879
 Au      1.42175716     -0.55058404     -2.69373262
 Au      1.42898657      2.71452422      1.10552396
 Au     -0.47073526      0.50448524      1.69570752
 Au     -0.59196504     -0.64479470     -0.67657407
 Au      0.96935296     -2.95166874     -1.58549992
 Au      3.27853975     -1.79999707     -1.00647384
 Au      2.06630969      0.50707430      0.00897192
  P     -0.66936980     -3.75393433     -3.33175735
  C      0.20010298     -4.23054224     -4.86141797
  C     -0.46489846     -4.85296885     -5.92390284
  C      0.21833850     -5.18124538     -7.08359665
  C      1.57308314     -4.89791798     -7.20189256
  C      2.24638010     -4.29053175     -6.15081145
  C      1.56394248     -3.96274297     -4.98906833
  H      2.10488821     -5.15703774     -8.10973862
  H     -1.52121790     -5.08177412     -5.83692438
  H      2.09532319     -3.49535045     -4.16709022
  H      3.30584154     -4.07597365     -6.23173140
  C     -1.78694504     -2.42119966     -3.88310158
  C     -2.67355277     -1.87504739     -2.94845548
  C     -3.50548452     -0.82234164     -3.29488101
  C     -3.45976004     -0.28697702     -4.57546697
  C     -2.57095414     -0.80754225     -5.50426675
  C     -1.73948847     -1.86397851     -5.16149296
  H     -1.04728026     -2.25500614     -5.89792598
  H     -4.10812198      0.53946786     -4.84170331
  H     -2.51919937     -0.38837535     -6.50262352
  H     -2.71282892     -2.28237347     -1.94401262
  H     -0.30897903     -5.66169701     -7.89947494
  C     -1.77703134     -5.18375475     -3.06584170
  C     -1.16530781     -6.42300191     -2.84520343
  C     -1.92531490     -7.54963258     -2.57989950
  C     -3.30979342     -7.45661664     -2.52101860
  C     -3.92763404     -6.23351206     -2.73890715
  C     -3.17002678     -5.10335908     -3.00982788
  H     -3.90517222     -8.33672975     -2.30904673
  H     -5.00824918     -6.15475633     -2.70129659
  H     -3.67054177     -4.15859190     -3.18672879
  H     -4.18671062     -0.41082571     -2.55944986
  H     -1.43461741     -8.50176727     -2.41338372
  H     -0.08363354     -6.49966184     -2.88621597
  P      0.60208709     -4.37583610      0.44002973
  C      0.49963611     -6.18219615      0.23892229
  C     -0.43082691     -6.98485674      0.90380938
  C     -0.45497703     -8.35388118      0.68593428
  C      0.44915248     -8.93989735     -0.18988016
  C      1.38147371     -8.15218365     -0.85291611
  C      1.40262443     -6.78203203     -0.64510376
  H      0.42823457    -10.01054118     -0.35523846
  H     -1.13860979     -6.53706972      1.59182378
  H      2.12506896     -6.16513402     -1.17026495
  H      2.08940818     -8.60497362     -1.53726288
  C     -1.02020173     -3.90844894      1.12926157
  C     -1.17322494     -3.13605304      2.28134769
  C     -2.43411262     -2.72454257      2.68913400
  C     -3.56060234     -3.08054861      1.95942529
  C     -3.41947974     -3.85245573      0.81259395
  C     -2.16123030     -4.25017778      0.39531934
  H     -2.05788190     -4.84256586     -0.50643672
  H     -4.54411167     -2.76830114      2.28986455
  H     -4.29274247     -4.14533051      0.24180910
  H     -0.30791510     -2.85425486      2.87032767
  H     -1.18320492     -8.96591567      1.20530110
  C      1.72464269     -4.14936582      1.86271816
  C      2.15483368     -2.85485299      2.16838256
  C      3.01765966     -2.62672755      3.22656560
  C      3.46697282     -3.68972095      3.99911354
  C      3.05077205     -4.97956108      3.70347178
  C      2.18646846     -5.21025691      2.64328798
  H      4.14854194     -3.51130935      4.82233234
  H      3.40213310     -5.81377464      4.29945684
  H      1.86944287     -6.22262832      2.42176300
  H     -2.53694131     -2.13147273      3.59021116
  H      3.35007107     -1.61796637      3.44097595
  H      1.80951739     -2.01764531      1.57071055
  P      5.52930541     -1.31513001     -0.39461549
  C      6.09923525     -1.95739888      1.20666662
  C      6.67470715     -3.22714524      1.30223872
  C      7.05544275     -3.73541267      2.53441138
  C      6.86461205     -2.98731916      3.68825868
  C      6.27308213     -1.73320234      3.60822315
  C      5.87979879     -1.22729152      2.37897874
  H      7.17515322     -3.38071171      4.64892985
  H      6.83508211     -3.81454591      0.40503158
  H      5.40904263     -0.25147106      2.32484658
  H      6.11591516     -1.14576267      4.50563028
  C      5.93171548      0.46195128     -0.33133668
  C      5.17259423      1.34622311     -1.10062618
  C      5.43757166      2.70605491     -1.08475161
  C      6.47331331      3.20409654     -0.30721734
  C      7.24881127      2.33393914      0.44627603
  C      6.98375273      0.97335617      0.43381091
  H      7.59884130      0.30652153      1.02668406
  H      6.68001059      4.26794005     -0.29341129
  H      8.06558196      2.71476039      1.04833528
  H      4.37011631      0.96423501     -1.72193730
  H      7.50905271     -4.71800035      2.59248570
  C      6.71779142     -1.96738429     -1.60526985
  C      6.23743358     -2.53962846     -2.78438763
  C      7.11410896     -3.02062253     -3.74431116
  C      8.48363371     -2.93445531     -3.53723674
  C      8.97361980     -2.36538816     -2.36851464
  C      8.09989844     -1.88268124     -1.40821644
  H      9.17039242     -3.31073994     -4.28623201
  H     10.04268792     -2.29637720     -2.20451315
  H      8.48989054     -1.43859068     -0.49916359
  H      4.83262188      3.37721845     -1.68292372
  H      6.72628867     -3.46380420     -4.65436330
  H      5.16612716     -2.60831198     -2.94556128
  P      0.96898798      1.34673219     -4.07892081
  C      0.69683666      0.76040751     -5.77986208
  C     -0.10454031      1.43073004     -6.70698019
  C     -0.30395551      0.90242178     -7.97345554
  C      0.29206794     -0.29894096     -8.33400022
  C      1.09165005     -0.97395334     -7.42171711
  C      1.28869940     -0.44890011     -6.15453805
  H      0.13011090     -0.71044532     -9.32319433
  H     -0.58194021      2.36555033     -6.43667799
  H      1.90223805     -0.98621822     -5.43870694
  H      1.55777801     -1.91461527     -7.69253553
  C      2.27677508      2.60328538     -4.21408799
  C      2.37381686      3.59276247     -3.22988934
  C      3.37765419      4.54625547     -3.29161671
  C      4.31346153      4.50835905     -4.31843226
  C      4.24313745      3.51110777     -5.28093105
  C      3.23179154      2.56369248     -5.23161132
  H      3.17562802      1.79455789     -5.99377135
  H      5.09662371      5.25577885     -4.36507554
  H      4.97439720      3.47397271     -6.07995682
  H      1.65156224      3.62233397     -2.42022122
  H     -0.93013302      1.43222281     -8.68183089
  C     -0.51134015      2.34302685     -3.70562547
  C     -1.53019241      1.77658784     -2.94218606
  C     -2.69611387      2.47360822     -2.67130965
  C     -2.86579625      3.75713542     -3.17138362
  C     -1.85463975      4.34183032     -3.92236139
  C     -0.68574244      3.64521048     -4.18740438
  H     -3.78372916      4.29941093     -2.97597348
  H     -1.97757766      5.34715045     -4.30817870
  H      0.09767071      4.11725647     -4.76889272
  H      3.42427572      5.32657443     -2.54052151
  H     -3.47385719      2.00973784     -2.07502402
  H     -1.41013821      0.76911226     -2.56117872
  P     -5.21230195      0.23274249      0.79490635
  C     -6.26697912     -1.22728166      0.51960762
  C     -7.40425690     -1.50794922      1.27919331
  C     -8.17028456     -2.63140777      1.00698723
  C     -7.81740526     -3.48771034     -0.02669622
  C     -6.68426007     -3.22389091     -0.78451989
  C     -5.91103391     -2.10726401     -0.50718953
  H     -8.42120613     -4.36210824     -0.23868246
  H     -7.69400794     -0.84738477      2.08807163
  H     -5.01379377     -1.91769635     -1.08515689
  H     -6.39864552     -3.88913216     -1.59166413
  C     -5.86538042      1.45877881     -0.38394670
  C     -5.75400274      2.82281692     -0.09622073
  C     -6.16221722      3.77293404     -1.02004316
  C     -6.66232757      3.37911107     -2.25411523
  C     -6.76578423      2.02810599     -2.55485274
  C     -6.37385836      1.07503628     -1.62730188
  H     -6.48092576      0.02328306     -1.86714360
  H     -6.97731336      4.12360355     -2.97558240
  H     -7.16061418      1.71234064     -3.51358575
  H     -5.36037008      3.13988268      0.86361377
  H     -9.05006047     -2.83643819      1.60580631
  C     -5.71552979      0.86739240      2.42148621
  C     -4.88264792      0.62058631      3.51451770
  C     -5.23353226      1.05564079      4.78279272
  C     -6.41754873      1.75352812      4.97545503
  C     -7.25171754      2.01072727      3.89575582
  C     -6.90800537      1.56923354      2.62764289
  H     -6.68896001      2.09803076      5.96638539
  H     -8.17721940      2.55541953      4.04169655
  H     -7.56580059      1.77463744      1.79085820
  H     -6.09361926      4.82635171     -0.77382665
  H     -4.57875017      0.85594871      5.62338800
  H     -3.95076793      0.08548921      3.36297709
  P      0.93890547      4.95513477      1.69158271
  C     -0.77855410      5.39128286      1.29387081
  C     -1.40205775      6.55030047      1.76657126
  C     -2.72403552      6.81781729      1.44707390
  C     -3.44254509      5.93381486      0.65334325
  C     -2.83173663      4.78301970      0.17384691
  C     -1.51035953      4.51462567      0.49087558
  H     -4.47710335      6.14327973      0.40778060
  H     -0.85250356      7.24117069      2.39544749
  H     -1.03722413      3.61347592      0.11447325
  H     -3.38529181      4.08882112     -0.44674918
  C      1.95713927      6.05287357      0.65717930
  C      3.29456628      5.69462341      0.46300380
  C      4.13463692      6.48986907     -0.30111643
  C      3.64506552      7.64503428     -0.89763690
  C      2.31365279      7.99865867     -0.72694459
  C      1.47452419      7.21153645      0.04707533
  H      0.43752705      7.50035055      0.17404794
  H      4.30033198      8.26570493     -1.49725484
  H      1.92553223      8.89526435     -1.19617056
  H      3.67463220      4.78252183      0.91165843
  H     -3.19566477      7.71894767      1.82123375
  C      1.17125163      5.61751632      3.37385533
  C      0.14518445      5.49190649      4.31556359
  C      0.31564796      5.95293547      5.61147563
  C      1.51971771      6.53102189      5.99225607
  C      2.55307364      6.64037339      5.07100010
  C      2.38361499      6.18449339      3.77252196
  H      1.65176549      6.89630604      7.00373792
  H      3.49601401      7.08798833      5.36287261
  H      3.19593814      6.28169868      3.06102816
  H      5.17346638      6.20837035     -0.43074803
  H     -0.49618037      5.86055912      6.32403361
  H     -0.79720520      5.04047276      4.02719680
  P     -0.28791296      1.01129260      4.00639038
  C      1.30490647      1.75395109      4.49625553
  C      1.43249151      2.73139313      5.48327898
  C      2.67620707      3.26246879      5.79054699
  C      3.80936342      2.83777941      5.11132953
  C      3.69694305      1.86359391      4.12954769
  C      2.45627185      1.32310174      3.82910146
  H      4.77702599      3.26472494      5.34676109
  H      0.55734646      3.08899626      6.01240117
  H      2.37729523      0.55484987      3.06954949
  H      4.57521705      1.52314747      3.59283522
  C     -0.44478921     -0.43029465      5.10483838
  C     -1.69169622     -0.83465618      5.58974861
  C     -1.81836534     -2.00743989      6.31946185
  C     -0.70762913     -2.80519970      6.55750459
  C      0.53430793     -2.41875123      6.07189562
  C      0.66547264     -1.24189595      5.35242891
  H      1.64128622     -0.94618651      4.98482470
  H     -0.80957453     -3.72504371      7.12091791
  H      1.40723583     -3.03590110      6.25224623
  H     -2.56615702     -0.22176798      5.40646638
  H      2.75712435      4.02085052      6.56056616
  C     -1.56681845      2.18034733      4.54808592
  C     -2.25742414      2.89169044      3.56384059
  C     -3.23399535      3.81470804      3.90442623
  C     -3.53549096      4.04013258      5.24069518
  C     -2.86386585      3.33307581      6.22976656
  C     -1.88875285      2.40716381      5.89029455
  H     -4.29828086      4.76064610      5.51115446
  H     -3.10221798      3.50154512      7.27345685
  H     -1.38209843      1.85071810      6.67040608
  H     -2.79090958     -2.29940316      6.69844265
  H     -3.76070687      4.35416082      3.12517038
  H     -2.02590374      2.71529203      2.51887221

