146
Energy =   -192.66414220 au
 Co     -0.82017815     -2.71676920      0.07966177
 Co      0.40708965      0.75270394     -0.14517966
 Co     -2.09128921      0.04921261     -0.05891064
 Co     -0.35820691     -0.36099988      2.58171433
 Co      1.64983808     -1.35444139      0.70301434
 Co      0.40963368     -0.56142279     -2.29655776
 Te      2.49146807     -0.01737576     -1.13873110
 Te     -1.16111344      1.66693839      1.47242392
 Te     -1.17068518      1.26306511     -1.91198424
 Te      0.32381954     -2.69391118      2.25650457
 Te     -2.23489953     -1.63505570      1.74039403
 Te     -1.78047285     -1.56574339     -1.87842270
 Te      1.71679517      0.78067822      1.87012598
 Te      1.20411352     -2.64744368     -1.30262103
  P      0.38604624     -0.07345224      4.57843809
  C     -0.68369098     -0.98804072      5.83701396
  H     -0.51787221     -2.06212963      5.70506735
  H     -0.40670109     -0.73688680      6.86454576
  C     -2.16878245     -0.68915510      5.63048233
  H     -2.77487028     -1.29788315      6.30329607
  H     -2.38426908      0.36226969      5.82546156
  H     -2.45988306     -0.91443200      4.60061332
  C      0.39019791      1.61187763      5.41509266
  H     -0.58376309      2.07073448      5.21508815
  H      0.46732593      1.49437827      6.50028900
  C      1.48180448      2.56726150      4.93870179
  H      1.34170015      3.54985311      5.39248675
  H      2.47120332      2.19799967      5.20993154
  H      1.44701723      2.67472688      3.85383064
  C      2.07303318     -0.74511263      5.03778605
  H      2.81768326     -0.17804404      4.47093031
  H      2.11773387     -1.77217175      4.65931670
  C      2.46696455     -0.74126123      6.51448474
  H      3.48335822     -1.12563187      6.61760550
  H      2.44079302      0.26661339      6.92842805
  H      1.80283531     -1.37522463      7.10166658
  P     -0.80049903     -4.78426217     -0.54091527
  C     -0.80543528     -5.39263014     -2.31568714
  H      0.09011253     -4.98959221     -2.79868126
  H     -0.72871977     -6.48378145     -2.34569430
  C     -2.03508810     -4.96564755     -3.11614554
  H     -1.91131878     -5.24233587     -4.16457536
  H     -2.93628234     -5.44733641     -2.73539397
  H     -2.17242243     -3.88359102     -3.05660845
  C     -2.27735974     -5.76787719      0.11109624
  H     -3.17625337     -5.38284745     -0.38077552
  H     -2.19935592     -6.82684164     -0.14969577
  C     -2.45258968     -5.61667938      1.62124948
  H     -3.35054295     -6.14202835      1.95058634
  H     -1.59562862     -6.02440582      2.15882003
  H     -2.55206554     -4.56072136      1.88567747
  C      0.64375664     -5.77814431      0.12775044
  H      0.81814303     -5.44080535      1.15522081
  H      1.52267568     -5.46900118     -0.44753710
  C      0.55098495     -7.30366651      0.11655492
  H      1.49426668     -7.72345412      0.47078502
  H     -0.24373631     -7.65554133      0.77390643
  H      0.36555461     -7.68487784     -0.88771536
  P     -4.18111235      0.29628471      0.43055134
  C     -5.36594327     -1.16160098      0.42059809
  H     -5.09231227     -1.81467377      1.25434707
  H     -6.39258618     -0.82363259      0.58997194
  C     -5.32758339     -1.97285459     -0.87371865
  H     -5.96480864     -2.85386890     -0.78058403
  H     -5.68134378     -1.37734464     -1.71629016
  H     -4.31031951     -2.30141131     -1.09432594
  C     -5.16293328      1.43565766     -0.71167444
  H     -5.10066810      1.01961044     -1.72247690
  H     -6.22195011      1.44901677     -0.43839895
  C     -4.62614643      2.86460560     -0.74052568
  H     -5.17477182      3.45890591     -1.47302825
  H     -4.72659868      3.34045253      0.23540383
  H     -3.56938989      2.86699410     -1.01826997
  C     -4.58412651      1.01626292      2.11352461
  H     -4.01180759      1.94468421      2.20827747
  H     -4.16974226      0.32861914      2.85788288
  C     -6.04651200      1.29470834      2.45952357
  H     -6.10149224      1.72725303      3.46016637
  H     -6.49264463      2.00112102      1.75980815
  H     -6.63686135      0.37872437      2.45333738
  P      4.23866634      1.14921427      0.75797982
  C      5.45902357      2.06289280     -0.38898812
  H      5.31434507      3.13382769     -0.21866963
  H      6.49094251      1.82386637     -0.11794877
  C      5.25946354      1.77584827     -1.87299168
  H      5.96236283      2.36386690     -2.46626258
  H      5.41852647      0.71960768     -2.09073552
  H      4.24510723      2.03335866     -2.17856556
  C      5.17381067     -0.47333788      0.88312418
  H      5.31693411     -0.84836719     -0.13402805
  H      6.16648234     -0.29846233      1.30726527
  C      4.47272592     -1.55049238      1.70433042
  H      5.03495591     -2.48430629      1.66381878
  H      4.37422633     -1.24651069      2.74664318
  H      3.45406519     -1.74015891      1.30304297
  C      4.80061725      1.94745588      2.39473834
  H      4.46378871      1.27306244      3.18850906
  H      4.21354684      2.86448661      2.51052276
  C      6.27658221      2.27742494      2.61628326
  H      6.42107928      2.62378921      3.64167373
  H      6.90851912      1.40222280      2.46238582
  H      6.60818645      3.06790084      1.94298970
  P      1.00549442     -0.32922869     -4.36707137
  C     -0.30184637     -0.23081983     -5.71431747
  H     -0.86897114      0.69415024     -5.56741641
  H      0.15248601     -0.17976727     -6.70815474
  C     -1.26956566     -1.41398036     -5.66837884
  H     -2.05855641     -1.28302692     -6.41081646
  H     -0.74971357     -2.34993182     -5.87743494
  H     -1.73070526     -1.49231992     -4.68067126
  C      2.15520590     -1.58187685     -5.16767463
  H      1.61737969     -2.53357039     -5.22970502
  H      2.40706166     -1.29260023     -6.19207775
  C      3.43901290     -1.80171314     -4.36838789
  H      4.05137249     -2.56963278     -4.84405893
  H      4.02284774     -0.88270693     -4.30481289
  H      3.20137904     -2.12733602     -3.35338031
  C      1.91872434      1.27932703     -4.68571443
  H      2.78049133      1.30039450     -4.01037119
  H      1.25717873      2.08770472     -4.35515005
  C      2.39502712      1.58421740     -6.10606758
  H      2.90101136      2.55130118     -6.11664016
  H      3.09800532      0.82942977     -6.45804315
  H      1.55758204      1.63108350     -6.80200347
  P     -1.04591058      3.80431969     -0.57497918
  C     -1.21354145      4.97770925     -2.07095111
  H     -2.26861654      5.25332464     -2.16463784
  H     -0.64798662      5.90096590     -1.91707013
  C     -0.75868765      4.34365428     -3.38329492
  H     -0.90365039      5.04036271     -4.21106885
  H      0.29776617      4.07458281     -3.33965552
  H     -1.32993427      3.43705717     -3.58695676
  C      0.82462684      3.90197716     -0.39241282
  H      1.18663277      2.86793179     -0.53794230
  H      1.25237275      4.50048283     -1.20089501
  C      1.38129280      4.39981894      0.93876192
  H      2.46276552      4.24611540      0.95915419
  H      1.18505157      5.46131236      1.08452193
  H      0.94643557      3.84350535      1.76967634
  C     -1.67911922      5.01232584      0.75314230
  H     -1.24643412      4.68660745      1.70253730
  H     -2.75385760      4.82026876      0.83566898
  C     -1.46963597      6.51689325      0.58056815
  H     -1.77798099      7.03168127      1.49300350
  H     -0.42421727      6.75873507      0.38991356
  H     -2.06956122      6.90257488     -0.24377143
