146
Energy =   -192.73008958 au
 Co      0.69729815     -1.89487336     -0.48204203
 Co     -0.68808246      2.21798780      0.22616520
 Co     -2.06829220     -0.70504599      0.06876710
 Co      0.23167870     -0.08475389      1.99501033
 Co      2.04428802      0.82024861     -0.66411850
 Co     -0.52890400      0.57020117     -2.30971573
 Te      0.72937581      2.57512095     -1.70553496
 Te     -1.98608774      0.95173480      1.83859694
 Te     -2.51568515      1.35272995     -1.12055839
 Te      2.32718996     -0.87990956      1.04183171
 Te     -0.76524415     -2.23186909      1.42796726
 Te     -1.21951520     -1.73970102     -1.99019948
 Te      1.45563641      1.94620099      1.37311095
 Te      1.48650143     -0.73073052     -2.47646078
  P      1.66680089     -3.80135686     -0.29532975
  C      3.12267352     -4.18354643     -1.42561994
  H      3.91385434     -3.45627303     -1.22037006
  H      3.52849351     -5.17350305     -1.20027466
  C      2.77258961     -4.12767598     -2.91166434
  H      3.66937051     -4.29248028     -3.51126211
  H      2.03763322     -4.89103467     -3.16927539
  H      2.36111947     -3.14833945     -3.16755292
  C      0.60178135     -5.30315762     -0.70337351
  H      0.00783039     -5.04269515     -1.58582115
  H      1.22797692     -6.15611872     -0.98118241
  C     -0.35053668     -5.72314275      0.41473337
  H     -1.10159083     -6.41338915      0.02725837
  H      0.18673711     -6.21692770      1.22445778
  H     -0.85902016     -4.84954821      0.82894500
  C      2.39800797     -4.30761081      1.35363214
  H      1.57926157     -4.30097023      2.07934045
  H      3.07913194     -3.50681221      1.65809929
  C      3.13269553     -5.64522048      1.44541119
  H      3.36753922     -5.85472640      2.49054080
  H      2.52575870     -6.46499275      1.06216792
  H      4.06857309     -5.61727360      0.88765315
  P     -1.34657196      1.80000914     -3.86938272
  C     -2.87280136      1.09222927     -4.72638919
  H     -3.70412538      1.14432491     -4.01648080
  H     -3.14394238      1.69433414     -5.59769439
  C     -2.68784796     -0.35666243     -5.17305439
  H     -3.62480206     -0.74871021     -5.57194687
  H     -1.92372486     -0.42841708     -5.94834034
  H     -2.38081601     -0.98149945     -4.32976824
  C     -0.22349167      1.93803121     -5.38889750
  H      0.27003633      0.96806643     -5.50938095
  H     -0.81980305      2.10525663     -6.29039537
  C      0.84809408      3.02068288     -5.28727259
  H      1.60749143      2.87070448     -6.05642512
  H      0.41670959      4.01320923     -5.41764488
  H      1.32977390      2.98755092     -4.30750381
  C     -1.89167549      3.58082833     -3.66544261
  H     -1.01020766      4.15730062     -3.37187594
  H     -2.58014875      3.61802341     -2.81716176
  C     -2.55707280      4.25959369     -4.86254599
  H     -2.68906145      5.32076045     -4.64323487
  H     -1.95084398      4.17194510     -5.76384027
  H     -3.53908317      3.83108822     -5.06194215
  P      0.43466248     -0.31938179      4.12488113
  C      1.45580349     -1.80983456      4.64904906
  H      2.29260753     -1.88382897      3.94569164
  H      1.88404576     -1.65854524      5.64376941
  C      0.68892840     -3.13130896      4.64319994
  H      1.38529365     -3.96595305      4.73936391
  H     -0.01933325     -3.17590692      5.47093650
  H      0.13452860     -3.24615219      3.70813286
  C     -1.02520363     -0.53100499      5.28549559
  H     -1.63162994     -1.35671849      4.89920639
  H     -0.68050153     -0.82582502      6.28111520
  C     -1.91627257      0.70353515      5.40151390
  H     -2.78538855      0.47949263      6.02217739
  H     -1.37832210      1.54132449      5.84566845
  H     -2.26627794      1.00482344      4.41064765
  C      1.41988578      1.03636710      4.97875200
  H      0.96097901      1.99217516      4.70959994
  H      2.41140624      1.03988187      4.51268468
  C      1.58324512      0.98566212      6.49843578
  H      2.19576903      1.82924924      6.82180039
  H      0.61929505      1.05401014      7.00147617
  H      2.07551100      0.06733215      6.81771623
  P     -0.93649412      3.99359195      1.39385800
  C     -2.69907354      4.65616947      1.49682424
  H     -3.27900977      3.96023816      2.11149529
  H     -2.71412106      5.62946707      1.99505048
  C     -3.37736455      4.79189727      0.13511454
  H     -4.40941998      5.12240693      0.26295008
  H     -2.85631839      5.51715459     -0.49135916
  H     -3.38300208      3.83025463     -0.38390082
  C     -0.08263423      5.58311141      0.85064756
  H     -0.56236534      5.92725929     -0.07104520
  H     -0.23272760      6.36611826      1.59997422
  C      1.41121502      5.41772308      0.58420883
  H      1.85405130      6.37768083      0.31342768
  H      1.92642342      5.02897342      1.46337610
  H      1.56743054      4.71892704     -0.24122846
  C     -0.49291089      3.98636141      3.21446581
  H      0.59883690      4.01093899      3.27547492
  H     -0.80367973      3.01719072      3.61547155
  C     -1.06482389      5.08645260      4.10813521
  H     -0.62249401      5.00516323      5.10277103
  H     -0.83975385      6.07856303      3.71630967
  H     -2.14545158      4.98784361      4.20903902
  P      3.94615053      0.97288249     -1.64585798
  C      4.11982194      1.80414004     -3.32003616
  H      3.42630491      2.65102966     -3.32961407
  H      5.12735947      2.21390133     -3.43364537
  C      3.82747137      0.91054433     -4.52347414
  H      3.81324669      1.51037745     -5.43496746
  H      4.58956366      0.13806122     -4.62972999
  H      2.85917722      0.42035901     -4.41126564
  C      5.10437634     -0.48174101     -1.89522203
  H      4.55740605     -1.23116829     -2.47510682
  H      5.96976641     -0.18146142     -2.49385653
  C      5.59120798     -1.12801952     -0.59850755
  H      6.12364575     -2.05404671     -0.82207362
  H      6.26632658     -0.46492106     -0.05712280
  H      4.74683984     -1.35941419      0.05475228
  C      5.02169089      2.13686438     -0.61401545
  H      5.02426080      1.74303782      0.40799768
  H      4.49254317      3.09509266     -0.56667834
  C      6.46626919      2.39384299     -1.04587521
  H      6.94892011      3.04572816     -0.31533993
  H      7.03581479      1.46682098     -1.10237921
  H      6.50929295      2.88525681     -2.01756832
  P     -3.74952087     -1.95207676      0.52547836
  C     -3.83945817     -3.78840469      0.16127278
  H     -2.99807453     -4.26529950      0.67136277
  H     -4.75492860     -4.20829407      0.58894934
  C     -3.78781977     -4.14199999     -1.32359127
  H     -3.70766971     -5.22338452     -1.44607445
  H     -4.68661165     -3.79979649     -1.83761774
  H     -2.92222328     -3.67264146     -1.79772194
  C     -5.40948697     -1.43413992     -0.20859670
  H     -5.33451023     -1.52395935     -1.29713579
  H     -6.20526756     -2.11211656      0.11276363
  C     -5.79112021      0.00517906      0.13154973
  H     -6.73066688      0.26934212     -0.35653169
  H     -5.90936657      0.13837489      1.20747192
  H     -5.01507415      0.69157715     -0.21789531
  C     -4.14458294     -1.98543795      2.36102400
  H     -4.04559688     -0.95904342      2.73065628
  H     -3.34027751     -2.55697059      2.83660575
  C     -5.49169491     -2.54765257      2.81306849
  H     -5.53187660     -2.54769463      3.90392659
  H     -6.31776993     -1.94027238      2.44430906
  H     -5.63300778     -3.57202384      2.46836461
