146
Energy =   -192.69905020 au
 Co      0.16965690     -2.31104759     -0.51681101
 Co      0.15625232      1.92534967     -0.84340870
 Co     -2.23389980     -0.17223098     -0.69322661
 Co     -0.17325120     -0.06648847      1.56161661
 Co      2.40418785      0.00452666     -0.14491943
 Co      0.30530915     -0.31496352     -2.77401584
 Te      2.09676019      1.24507148     -2.19958304
 Te     -1.64751108      1.70578737      0.76380181
 Te     -1.53699558      1.27423596     -2.46917813
 Te      1.62454758     -1.74989550      1.31923744
 Te     -1.70457650     -1.87292876      0.93283156
 Te     -1.49703261     -1.85813815     -2.22894051
 Te      1.39032924      1.76604128      1.24909337
 Te      2.11779051     -1.65360298     -1.85663339
  P      0.17530638      0.45189481     -4.77391108
  C     -1.36337457      0.17271923     -5.81653769
  H     -2.16091965      0.78658811     -5.38708250
  H     -1.19511703      0.52007747     -6.84026940
  C     -1.82938230     -1.28069657     -5.86107683
  H     -2.77464752     -1.35379971     -6.40142863
  H     -1.09461983     -1.91211827     -6.36206330
  H     -1.97801876     -1.66401278     -4.84823874
  C      1.44234418     -0.31843360     -5.95334190
  H      1.20712961     -1.38355306     -6.04372344
  H      1.34856560      0.11177893     -6.95401559
  C      2.88339581     -0.18160609     -5.46916623
  H      3.56678123     -0.63399030     -6.18985213
  H      3.15581951      0.86640745     -5.33924493
  H      3.00841626     -0.68559228     -4.50844187
  C      0.41468578      2.28290626     -5.09540979
  H      1.22851606      2.62576019     -4.44905705
  H     -0.49256157      2.78203983     -4.74111679
  C      0.70287767      2.73289497     -6.52689334
  H      0.71448939      3.82387924     -6.56207246
  H      1.67464535      2.37401822     -6.86529670
  H     -0.06021876      2.37935815     -7.22040085
  P      0.57064181     -4.25420004     -1.33382438
  C      1.17817056     -4.68098639     -3.05595913
  H      2.22403971     -4.36784219     -3.12313715
  H      1.15148174     -5.76674348     -3.19039410
  C      0.40443316     -4.03100353     -4.19995879
  H      0.77857188     -4.39788952     -5.15758435
  H     -0.66033930     -4.25366196     -4.13113283
  H      0.52800215     -2.94751654     -4.16999403
  C     -0.86080949     -5.47821828     -1.23674903
  H     -1.64196272     -5.10907778     -1.90943136
  H     -0.56212503     -6.46541979     -1.60062647
  C     -1.44387523     -5.60676721      0.16891754
  H     -2.33277167     -6.23934422      0.15080162
  H     -0.71845236     -6.04739902      0.85387961
  H     -1.72601467     -4.62307295      0.55397979
  C      1.90109502     -5.13748898     -0.33702289
  H      1.64707242     -5.01349875      0.72093097
  H      2.82877623     -4.57586814     -0.49189548
  C      2.16364504     -6.61751597     -0.61582448
  H      2.95998474     -6.97271933      0.04082013
  H      1.27456148     -7.21854248     -0.42666303
  H      2.47764485     -6.77618595     -1.64727312
  P      4.13976853      0.78816326      0.85199961
  C      4.76306877      2.55195395      0.71138146
  H      4.03425189      3.19633939      1.21193108
  H      5.71457419      2.66337694      1.23989754
  C      4.94247273      3.03227607     -0.72790608
  H      5.17048291      4.09936689     -0.73933041
  H      5.75877685      2.49905644     -1.21659380
  H      4.03224393      2.86393596     -1.30774785
  C      5.67891127     -0.11932438      0.22391933
  H      5.80878857      0.13496402     -0.83273558
  H      6.58030707      0.21294154      0.74560233
  C      5.53889527     -1.63595931      0.34340773
  H      6.41301929     -2.13084192     -0.08287743
  H      5.44240899     -1.93987338      1.38649415
  H      4.65014304     -1.97458412     -0.19564797
  C      4.29835237      0.54554080      2.70396148
  H      3.88011433     -0.43925702      2.93555464
  H      3.63512709      1.27940784      3.17216294
  C      5.68301555      0.65180636      3.34196037
  H      5.58442151      0.57511025      4.42638534
  H      6.33588753     -0.15258740      3.00407202
  H      6.15743081      1.60551918      3.11071217
  P     -0.23298445     -0.97456577      3.52461585
  C     -0.30147403     -2.80422112      3.94452817
  H      0.23330700     -3.33459715      3.15193869
  H      0.25041707     -2.98586089      4.87124214
  C     -1.69683661     -3.40940904      4.08484918
  H     -1.61844455     -4.49604273      4.15081827
  H     -2.19947422     -3.04557147      4.98094540
  H     -2.30349724     -3.15994815      3.21272737
  C     -1.64282916     -0.35348604      4.62535075
  H     -2.58358082     -0.72223989      4.20728851
  H     -1.56207795     -0.75537994      5.63853096
  C     -1.70246095      1.17077977      4.67711269
  H     -2.59179955      1.49835259      5.21773278
  H     -0.82357286      1.58453184      5.17255909
  H     -1.74507237      1.57493738      3.66270998
  C      1.25522894     -0.48469027      4.58193245
  H      1.51701944      0.54654273      4.32355764
  H      2.08514723     -1.10805800      4.23438324
  C      1.15164637     -0.59799797      6.10238062
  H      2.13112781     -0.40577649      6.54448897
  H      0.45034877      0.13184322      6.50567038
  H      0.83046030     -1.59367035      6.40899223
  P     -4.17265474      0.13417125      0.15679427
  C     -5.31900116     -1.30309912     -0.28530939
  H     -4.97843964     -2.18037946      0.27432386
  H     -6.34684778     -1.09423201      0.02351436
  C     -5.30843080     -1.63273822     -1.77679678
  H     -5.90921945     -2.52321669     -1.96844931
  H     -5.71620825     -0.80658312     -2.36078710
  H     -4.28645493     -1.82387574     -2.11627998
  C     -5.25415784      1.53883385     -0.48135725
  H     -5.17641528      1.53407135     -1.57353751
  H     -6.30337726      1.34693731     -0.23774104
  C     -4.87053541      2.92702408      0.02500730
  H     -5.49350984      3.68404658     -0.45448778
  H     -5.00468712      3.00066933      1.10453266
  H     -3.82529437      3.14109768     -0.20086571
  C     -4.48447909      0.21034754      2.00078867
  H     -3.98054846      1.10211159      2.38269279
  H     -3.97117747     -0.64976981      2.44208256
  C     -5.93357337      0.21821307      2.48604938
  H     -5.94502453      0.32311546      3.57252224
  H     -6.49200841      1.05081589      2.05868783
  H     -6.44292256     -0.71051105      2.23022842
  P     -0.32485482      3.82440503      2.09011218
  C     -0.47710248      4.96409272      0.60435919
  H     -1.51583451      4.92511674      0.26375788
  H     -0.27126924      5.99099787      0.91883629
  C      0.42873286      4.63767857     -0.57706029
  H      0.24789484      5.33736924     -1.39409296
  H      1.47998353      4.69382260     -0.29464804
  H      0.21984276      3.60957682     -0.95686273
  C      1.07039299      4.75646995      2.98779320
  H      1.91918325      4.81573377      2.30029393
  H      0.79280212      5.77969435      3.25320638
  C      1.50601743      4.00072661      4.24158152
  H      2.36032120      4.49288453      4.70926429
  H      0.69384521      3.95142704      4.96823317
  H      1.79528932      2.98076067      3.97919105
  C     -1.81107980      4.48451805      3.08414754
  H     -1.65683481      4.16799843      4.12033637
  H     -2.68770147      3.93937149      2.72084535
  C     -2.11842033      5.98250648      3.06910184
  H     -2.94136672      6.19037291      3.75593008
  H     -1.25615607      6.56997148      3.38533790
  H     -2.41668403      6.31163795      2.07369874
