#B3LYP/6-31+G(d) OPT FREQ

146, Energy =   -192.73451645 au

0 1
 Co      1.71766393     -1.50725840      0.24358532
 Co     -1.48991101      1.58580770     -0.09754486
 Co     -1.36426858     -1.71049606     -0.09122525
 Co     -0.16583748     -0.01172041      2.14672054
 Co      1.58052204      1.52440614     -0.14670717
 Co      0.04370192     -0.09378200     -2.22681023
 Te      0.01702678      2.30657380     -1.85414969
 Te     -2.48366393     -0.10450203      1.33936995
 Te     -2.33428926     -0.08939988     -1.62156208
 Te      2.22361414      0.29647555      1.84671406
 Te      0.05442658     -2.41392851      1.75430643
 Te      0.44035959     -2.41166668     -1.59982055
 Te      0.12591481      2.34010550      1.60700853
 Te      2.39978321     -0.19837785     -1.69254427
  P     -0.60766945      0.14331686     -4.25112863
  C     -1.84996673      1.43583216     -4.80565961
  H     -1.74977180      2.28346550     -4.12034077
  H     -1.58605818      1.80311091     -5.80155295
  C     -3.30863493      0.98307783     -4.82876957
  H     -3.95924498      1.84472420     -4.98754592
  H     -3.48485561      0.26566987     -5.63044975
  H     -3.57491529      0.51774188     -3.87814222
  C     -1.23007395     -1.34502507     -5.21829531
  H     -2.15503672     -1.68436504     -4.74170361
  H     -1.48148568     -1.06068580     -6.24410327
  C     -0.24256538     -2.51046645     -5.24028649
  H     -0.69468958     -3.37325422     -5.73218460
  H      0.66973356     -2.24520676     -5.77530983
  H      0.02945952     -2.79506215     -4.22046692
  C      0.86717259      0.69243167     -5.29536573
  H      1.73181482      0.09727112     -4.98325030
  H      1.08379413      1.72344257     -4.99468238
  C      0.75155482      0.63597317     -6.81866473
  H      1.64754957      1.07252911     -7.26383344
  H      0.66495490     -0.39189186     -7.16942732
  H     -0.11226793      1.19672306     -7.17592159
  P     -2.22587070     -3.66683537     -0.16923146
  C     -1.23777027     -5.25664511     -0.05211321
  H     -0.42238193     -5.07267329      0.65458251
  H     -1.85753467     -6.04925360      0.37727346
  C     -0.65279751     -5.76001239     -1.37015721
  H      0.03971321     -6.58106673     -1.17728050
  H     -1.43761245     -6.11911934     -2.03621183
  H     -0.10843558     -4.95788988     -1.87252108
  C     -3.36760463     -4.10727776     -1.60058515
  H     -2.76733304     -4.10577662     -2.51587648
  H     -3.76863613     -5.11777901     -1.48092507
  C     -4.51674738     -3.11629660     -1.77724246
  H     -5.09413513     -3.36786284     -2.66834099
  H     -5.18522090     -3.12862887     -0.91584562
  H     -4.12514352     -2.10199368     -1.89271866
  C     -3.35738272     -3.91553419      1.31633213
  H     -3.91744271     -2.98560705      1.46096054
  H     -2.69757993     -4.01109994      2.18555039
  C     -4.33832185     -5.08769903      1.30840288
  H     -4.84867695     -5.13506434      2.27216394
  H     -5.09228927     -4.96588207      0.53139904
  H     -3.82686827     -6.03692578      1.14838668
  P      2.96527141      2.87825889     -1.07057191
  C      3.26955009      3.09035655     -2.90962282
  H      2.30417153      2.96475114     -3.40905142
  H      3.59672574      4.11526027     -3.10828707
  C      4.28047043      2.13145618     -3.53487672
  H      4.25839935      2.23241425     -4.62145034
  H      5.29206278      2.34441966     -3.18869518
  H      4.03298016      1.10013610     -3.27704856
  C      4.75351817      2.82523762     -0.46819049
  H      5.18348183      1.87327715     -0.79419102
  H      5.34638901      3.62004085     -0.92932858
  C      4.87216421      2.91105709      1.05216956
  H      5.91111663      2.77222784      1.35559945
  H      4.52972710      3.87856956      1.42074663
  H      4.26657178      2.13191227      1.52310667
  C      2.47964789      4.65285188     -0.64910181
  H      2.11782673      4.65660069      0.38476416
  H      1.61092159      4.88223946     -1.27540096
  C      3.51907892      5.76121685     -0.81282242
  H      3.04673251      6.72766616     -0.62715689
  H      4.33710691      5.64258445     -0.10300049
  H      3.93453852      5.77467161     -1.82057415
  P      3.49190362     -2.34812287      1.12368556
  C      5.17071045     -1.51010608      1.05102511
  H      5.07733714     -0.55221004      1.57128046
  H      5.91420749     -2.10237112      1.59304666
  C      5.68439425     -1.25741143     -0.36563361
  H      6.57553960     -0.62840132     -0.33152523
  H      5.94229167     -2.19469659     -0.85996739
  H      4.92424811     -0.75249360     -0.96577817
  C      3.96720329     -4.01646172      0.37377573
  H      4.24443036     -3.84572258     -0.67122723
  H      4.84248402     -4.44308661      0.87080235
  C      2.81111592     -5.01380942      0.40842087
  H      3.10079053     -5.94675890     -0.07767899
  H      2.51198616     -5.23442775      1.43376931
  H      1.94902068     -4.60046520     -0.11939954
  C      3.44243959     -2.75602561      2.95397513
  H      2.44360046     -3.14940614      3.16880818
  H      3.51755605     -1.80232304      3.48632746
  C      4.48291306     -3.72337280      3.51678388
  H      4.37312854     -3.77577971      4.60157521
  H      4.34568555     -4.72675042      3.11433109
  H      5.49815666     -3.39500785      3.29388022
  P     -0.80629823     -0.52761643      4.12805728
  C     -2.07717168     -1.83820613      4.55796472
  H     -1.90141105     -2.68496232      3.88744309
  H     -1.90399560     -2.19858247      5.57632986
  C     -3.53675920     -1.40450338      4.44060683
  H     -4.18933483     -2.27213316      4.55227080
  H     -3.79389327     -0.67688749      5.21068042
  H     -3.72037717     -0.95567231      3.46238719
  C     -1.42224449      0.86915822      5.23662413
  H     -2.35612010      1.24464132      4.80685686
  H     -1.65664884      0.49984933      6.23898035
  C     -0.43675203      2.03225612      5.33410039
  H     -0.87864392      2.85092337      5.90446742
  H      0.48760424      1.72675218      5.82541604
  H     -0.18814625      2.40097530      4.33522043
  C      0.64512892     -1.19155712      5.12958409
  H      1.52521268     -0.59581721      4.86434575
  H      0.83598732     -2.20097662      4.74977554
  C      0.52724940     -1.24775049      6.65245420
  H      1.41246670     -1.73653340      7.06366202
  H      0.46315014     -0.24794645      7.08063247
  H     -0.34947916     -1.81497958      6.96529864
  P     -2.39611185      3.46895836      0.42209470
  C     -3.00800649      3.87663903      2.14987005
  H     -2.14390654      3.82992220      2.81918371
  H     -3.38964299      4.90159817      2.18445614
  C     -4.09110859      2.93362005      2.67185879
  H     -4.27695997      3.12972185      3.72922433
  H     -5.02501409      3.07183915      2.12587959
  H     -3.78065285      1.89248704      2.56006357
  C     -3.98836257      3.81166948     -0.53714741
  H     -4.72944838      3.06660001     -0.23113368
  H     -4.40113160      4.79329598     -0.28983408
  C     -3.78489922      3.69707591     -2.04628970
  H     -4.73187799      3.84123756     -2.56880938
  H     -3.07310284      4.44128348     -2.40537680
  H     -3.39917011      2.70581891     -2.29350203
  C     -1.40622352      5.02574043      0.08029107
  H     -0.87848485      4.87038664     -0.86639326
  H     -0.63486411      5.07864679      0.85540884
  C     -2.14326896      6.36297737      0.01961795
  H     -1.41503357      7.16872193     -0.08995437
  H     -2.82044968      6.40105243     -0.83332998
  H     -2.71749001      6.54580056      0.92799790

