146
Energy =   -192.73140301 au
 Co     -1.32757897     -1.70196908     -0.59634937
 Co      1.29719474      1.59056866      0.65669239
 Co     -1.73686786      1.33933272     -0.53799158
 Co     -0.91186643      0.09378091      2.11184658
 Co      1.45440078     -1.45937654      0.61123136
 Co      0.67334760      0.20683876     -2.04706635
 Te      2.70522106      0.15435036     -0.72707968
 Te     -0.84164362      2.45758005      1.41787076
 Te      0.23889656      2.51449957     -1.32176423
 Te     -0.61211941     -2.25948195      1.66980334
 Te     -2.86080801     -0.42078608      0.76614526
 Te     -1.68132535     -0.16916453     -2.44558106
 Te      1.45902811      0.01940553      2.53216007
 Te      0.84045789     -2.15115671     -1.64072906
  P      1.28825747      1.14047251     -3.87302923
  C      0.18468804      2.26248245     -4.89503435
  H     -0.18116085      3.04828906     -4.22716200
  H      0.77467478      2.75362391     -5.67490759
  C     -1.00976734      1.57094770     -5.54949178
  H     -1.68146583      2.31727871     -5.97702375
  H     -0.68550706      0.90073900     -6.34617025
  H     -1.56310409      0.98694887     -4.81034795
  C      1.78969388     -0.09352517     -5.21058992
  H      0.89871619     -0.66487132     -5.48942271
  H      2.13382808      0.42209157     -6.11126051
  C      2.85970997     -1.07481545     -4.73502874
  H      3.10326820     -1.78022457     -5.53114046
  H      3.77185880     -0.55387946     -4.44170392
  H      2.49366062     -1.63857344     -3.87324954
  C      2.80578395      2.24032047     -3.78082911
  H      3.48800182      1.79377000     -3.04995674
  H      2.46902464      3.18891864     -3.35087829
  C      3.57886981      2.53045623     -5.06698511
  H      4.35531651      3.26911912     -4.85949403
  H      4.06102032      1.63076024     -5.44821215
  H      2.92792810      2.93165206     -5.84403354
  P     -1.71995094      0.91698223      3.91947938
  C     -2.06743781     -0.43305536      5.19880677
  H     -1.10965742     -0.84742250      5.52989399
  H     -2.56381905     -0.01446979      6.07860445
  C     -2.92644284     -1.56532616      4.63760299
  H     -3.09460902     -2.32393721      5.40376897
  H     -3.89409101     -1.19068164      4.30074336
  H     -2.42419460     -2.03574163      3.78843965
  C     -3.39721033      1.76604731      3.96389590
  H     -4.00559484      1.29311981      3.18524273
  H     -3.89437463      1.56704097      4.91804362
  C     -3.38335375      3.27432883      3.72116014
  H     -4.40151835      3.63246065      3.55970244
  H     -2.96208917      3.80658888      4.57395029
  H     -2.78554241      3.51175034      2.83952229
  C     -0.65434586      2.05840008      4.95374078
  H     -0.57317017      3.00571168      4.41225470
  H      0.35149675      1.62518337      4.96456605
  C     -1.08634804      2.33538215      6.39377065
  H     -0.44083909      3.10364604      6.82338849
  H     -2.11607727      2.68910283      6.44066683
  H     -1.00032923      1.43847586      7.00683996
  P      2.85609731     -2.98111115      1.18479826
  C      4.49786194     -3.01071774      0.27138337
  H      5.03285750     -2.08459862      0.50571989
  H      5.11243015     -3.84246525      0.62739052
  C      4.35423520     -3.11970762     -1.24531626
  H      5.33877156     -3.19608822     -1.70957938
  H      3.76771944     -3.99577048     -1.52384565
  H      3.85603446     -2.23174190     -1.63729073
  C      2.43078831     -4.80760899      1.07329906
  H      1.99198305     -4.98129112      0.08606649
  H      3.33574143     -5.42012413      1.12758613
  C      1.44226895     -5.27155617      2.14262827
  H      1.06564834     -6.26607609      1.89851311
  H      1.91748348     -5.31431535      3.12272364
  H      0.59547765     -4.58300144      2.20413512
  C      3.48969238     -2.87548435      2.94804466
  H      2.62324773     -2.97071158      3.61045782
  H      3.86014617     -1.85603226      3.08922176
  C      4.57349532     -3.85770575      3.39429510
  H      4.77672569     -3.71020526      4.45654711
  H      4.26243368     -4.89166428      3.24843136
  H      5.50080201     -3.69409454      2.84576733
  P     -1.82944615     -3.63836534     -1.37205782
  C     -1.74750335     -4.05187321     -3.20096457
  H     -0.71229781     -3.89375237     -3.51957706
  H     -1.97590556     -5.11122927     -3.35229103
  C     -2.67160535     -3.22410736     -4.09118776
  H     -2.48574799     -3.46077577     -5.14018445
  H     -3.71887285     -3.43210939     -3.86945743
  H     -2.49158141     -2.15747396     -3.93774316
  C     -3.60534926     -4.17941764     -1.02110863
  H     -4.27770815     -3.50513287     -1.56021977
  H     -3.79166567     -5.18624727     -1.40452335
  C     -3.95233051     -4.11917379      0.46513951
  H     -4.99426355     -4.40386544      0.62023948
  H     -3.31833537     -4.79118615      1.04488204
  H     -3.81143595     -3.10303788      0.84243071
  C     -0.86710491     -5.10144367     -0.70510411
  H     -0.74499943     -4.93910046      0.36934422
  H      0.13324098     -5.03811753     -1.14518627
  C     -1.41650021     -6.51087941     -0.92374854
  H     -0.68980787     -7.23776583     -0.55612916
  H     -2.34819212     -6.65949896     -0.37858288
  H     -1.59503945     -6.71419235     -1.97953946
  P      2.94292468      2.51220462      1.67982168
  C      3.56570827      4.08919656      0.83053360
  H      2.80276571      4.86610645      0.94385286
  H      4.47782634      4.45308811      1.31115872
  C      3.83215779      3.88064542     -0.65738905
  H      4.20986361      4.79924690     -1.10915428
  H      4.56226218      3.08591868     -0.81722425
  H      2.90388220      3.60265243     -1.16028587
  C      4.59804425      1.66054443      1.94008616
  H      4.68414868      0.90994378      1.14706518
  H      5.41197367      2.37534343      1.78711612
  C      4.79951436      0.97005497      3.28776836
  H      5.67598776      0.32136981      3.24076560
  H      4.95188644      1.69585822      4.08641643
  H      3.92851293      0.36152176      3.53486866
  C      2.57137378      3.23758760      3.37189907
  H      2.49780985      2.40249755      4.07413479
  H      1.56853228      3.67474832      3.31378571
  C      3.53163038      4.28732569      3.93191253
  H      3.27067542      4.49916435      4.97050211
  H      4.56422338      3.93997277      3.90308575
  H      3.46426136      5.21805564      3.36901369
  P     -3.75103000      1.81198002     -1.10292371
  C     -5.24824002      0.70834937     -1.33492217
  H     -5.52035760      0.31931761     -0.34966528
  H     -6.08332872      1.32121784     -1.68842053
  C     -5.08109269     -0.46878466     -2.29043077
  H     -6.03615769     -0.98279881     -2.41490788
  H     -4.73207631     -0.13592180     -3.26755003
  H     -4.35457856     -1.17614861     -1.89307858
  C     -3.90509933      2.81203144     -2.69749934
  H     -3.61219983      2.15043234     -3.51856490
  H     -4.94216210      3.10897314     -2.87721610
  C     -3.00959146      4.04861913     -2.71869244
  H     -3.02279333      4.50604964     -3.70927643
  H     -3.34733006      4.78755812     -1.99100928
  H     -1.97856567      3.77652789     -2.47605744
  C     -4.50100589      2.99844897      0.15941663
  H     -3.73282812      3.74078670      0.39925848
  H     -4.65764386      2.41519269      1.07290403
  C     -5.79933488      3.72715643     -0.18705691
  H     -6.08864240      4.36328221      0.65165879
  H     -5.67539180      4.36002625     -1.06537495
  H     -6.61107312      3.02507927     -0.37597948
