146
Energy =   -192.64024710 au
 Co      0.07409802     -1.83176132      0.04318645
 Co     -1.24274471      1.98432945     -0.56586428
 Co     -2.08147290     -0.39001528     -0.06482032
 Co     -1.35227901      0.17504201      2.25749484
 Co      0.64105742      0.60686205      0.67700366
 Co      0.08848178     -0.24339174     -2.15951781
 Te      1.08836886      1.88158270     -1.33115964
 Te     -3.03686101      1.49803568      1.08478245
 Te     -2.24067359      0.58931458     -2.29656531
 Te      0.70923506     -1.18840828      2.30729958
 Te     -1.79743863     -2.17928389      1.54149964
 Te     -1.54099156     -2.05293482     -1.74329446
 Te     -0.48741819      2.47037562      1.67619171
 Te      2.07410854     -0.68551083     -0.75319771
  P      3.19297011     -2.37608090      1.34524284
  C      4.85772121     -2.87819790      0.56091786
  H      5.64017505     -2.27794723      1.03568807
  H      5.08664628     -3.92896269      0.76067825
  C      4.91731060     -2.64664977     -0.94673669
  H      5.90144664     -2.92046444     -1.33180340
  H      4.16697411     -3.24848105     -1.46046968
  H      4.72910087     -1.59901251     -1.18246953
  C      2.17036258     -3.85555708      0.77536450
  H      1.32837269     -3.42435156      0.19387301
  H      2.75142164     -4.46941037      0.08198195
  C      1.56098530     -4.75822001      1.84577522
  H      0.90711918     -5.49271643      1.37107008
  H      2.32816203     -5.29636151      2.40079580
  H      0.96349741     -4.17401751      2.54709723
  C      3.64148588     -2.82197159      3.14021320
  H      2.70264183     -3.02139447      3.66320749
  H      4.03332581     -1.89642786      3.57572245
  C      4.63575809     -3.94750557      3.43114524
  H      4.66516929     -4.13410698      4.50668482
  H      4.35389711     -4.87475201      2.93280053
  H      5.64052743     -3.67460655      3.10859754
  P     -1.30808067      0.40142874      4.40752532
  C     -1.32231164     -1.12426006      5.50173381
  H     -0.39433850     -1.67550240      5.31777021
  H     -1.33469612     -0.84785649      6.55992494
  C     -2.50780392     -2.04503249      5.21500920
  H     -2.44182761     -2.94402428      5.82999168
  H     -3.45234885     -1.54472224      5.43191194
  H     -2.50889735     -2.34342742      4.16334301
  C     -2.63732841      1.40631895      5.28408153
  H     -3.58923732      0.88009950      5.15959926
  H     -2.44641406      1.46537684      6.35949274
  C     -2.78451777      2.81600335      4.71259003
  H     -3.58923253      3.34678979      5.22411337
  H     -1.86202039      3.38542202      4.83233276
  H     -3.02205056      2.76973421      3.64720734
  C      0.25540161      1.22524408      5.03928874
  H      0.35022868      2.18319897      4.51717753
  H      1.09347661      0.60812393      4.69717550
  C      0.40182303      1.46659300      6.54136114
  H      1.36534743      1.94121476      6.73569028
  H     -0.38169058      2.12533625      6.91531199
  H      0.36551068      0.53097808      7.09912214
  P      0.92048089     -0.95672046     -4.04720258
  C      0.14321199     -0.39084723     -5.66538859
  H      0.29968001      0.68907273     -5.75600239
  H      0.63266147     -0.86176719     -6.52305404
  C     -1.35704752     -0.67680849     -5.73299345
  H     -1.77331581     -0.27391264     -6.65783875
  H     -1.55175124     -1.74967789     -5.70455149
  H     -1.87323502     -0.21243240     -4.88904853
  C      0.96789102     -2.80042019     -4.39992718
  H     -0.06904605     -3.14926832     -4.43749274
  H      1.41076498     -3.00864066     -5.37829331
  C      1.70406478     -3.59961854     -3.32621039
  H      1.63815666     -4.66742277     -3.54105973
  H      2.75682187     -3.31929499     -3.28501051
  H      1.26006021     -3.41717433     -2.34529381
  C      2.70388865     -0.45831558     -4.36484391
  H      3.28434009     -0.79000352     -3.49732296
  H      2.73265301      0.63704795     -4.34427360
  C      3.39134133     -0.94745516     -5.63967328
  H      4.41236079     -0.56265618     -5.66901685
  H      3.43793557     -2.03583809     -5.66963995
  H      2.87042924     -0.59688361     -6.53052150
  P     -3.08863234     -4.03768500     -0.32468741
  C     -3.11507375     -5.48225863     -1.56128258
  H     -2.56677169     -6.31129850     -1.10420673
  H     -4.13753943     -5.82600089     -1.74194296
  C     -2.46173821     -5.14910007     -2.90012978
  H     -2.47730986     -6.02360104     -3.55349789
  H     -2.98728259     -4.33393520     -3.39802688
  H     -1.42549089     -4.84302640     -2.75448346
  C     -4.67015105     -3.20835852     -0.89996833
  H     -4.52560156     -2.91487762     -1.94372699
  H     -5.50273241     -3.91743024     -0.87748845
  C     -5.04991237     -1.96942917     -0.09403466
  H     -5.96619139     -1.52718142     -0.48855631
  H     -5.20616237     -2.21681078      0.95635693
  H     -4.24962015     -1.21634167     -0.15320470
  C     -3.76060419     -4.97558910      1.18658979
  H     -4.07101748     -4.21007427      1.90470456
  H     -2.90106862     -5.48098495      1.63975404
  C     -4.89289070     -5.98835272      1.01379918
  H     -5.18195427     -6.37993821      1.99112264
  H     -5.77119609     -5.52911489      0.55971702
  H     -4.57960564     -6.82733866      0.39242563
  P     -1.86534527      3.71933805     -1.69653529
  C     -3.65851740      4.26186593     -1.51845343
  H     -3.81208978      4.58658835     -0.48412360
  H     -3.85744365      5.12429904     -2.16164229
  C     -4.67312915      3.16586510     -1.83935059
  H     -5.68639321      3.56696254     -1.78131449
  H     -4.51412023      2.76325349     -2.83983768
  H     -4.58327039      2.34840813     -1.12268564
  C     -1.75065723      3.81591607     -3.56638274
  H     -2.34830940      2.99119070     -3.96667338
  H     -2.20226296      4.74426464     -3.92950364
  C     -0.33348930      3.69743325     -4.12304593
  H     -0.35857041      3.72604208     -5.21385812
  H      0.29589750      4.51494724     -3.77010996
  H      0.12325833      2.75709390     -3.81065842
  C     -1.03342281      5.32863950     -1.18211723
  H      0.04602673      5.16332632     -1.25182309
  H     -1.24777381      5.46676864     -0.11623001
  C     -1.37883381      6.61800654     -1.92714498
  H     -0.83242393      7.44993906     -1.47875184
  H     -1.09613648      6.55309902     -2.97758493
  H     -2.44435474      6.83902411     -1.86668004
  P      1.81429372      4.06180162      0.81282420
  C      2.71832463      5.35300821     -0.25773627
  H      2.06651227      6.22776200     -0.33921598
  H      3.64734079      5.68262293      0.21610645
  C      3.04037479      4.84467308     -1.66123644
  H      3.46291150      5.64921298     -2.26600614
  H      3.75950044      4.02584745     -1.62187765
  H      2.14052224      4.47473899     -2.15416669
  C      3.34359737      3.04796023      1.22432465
  H      3.65470026      2.54485558      0.30372138
  H      4.16629193      3.70356203      1.52411757
  C      3.12575362      1.98889824      2.29932027
  H      4.04933636      1.43665898      2.48207614
  H      2.79479668      2.43518553      3.23739593
  H      2.35776823      1.27456067      1.96697301
  C      1.67547080      5.09215539      2.39514430
  H      1.26331805      4.42480317      3.15896666
  H      0.89944422      5.84145740      2.20280707
  C      2.90627282      5.79666139      2.96826321
  H      2.62855249      6.32834572      3.88057491
  H      3.68983561      5.08173054      3.21923882
  H      3.31164200      6.52316010      2.26390200
