#B3LYP/6-31+G(d) OPT FREQ

146, Energy =   -192.73059374 au

0 1
 Co      0.92436493     -1.86665100     -0.71265563
 Co     -0.58698761      2.05075035      0.70121276
 Co     -1.88262079     -0.89609964      0.29113600
 Co      0.55388571     -0.46023791      2.03342065
 Co      2.01059459      0.94507049     -0.55786024
 Co     -0.65472027      0.67721438     -2.05656470
 Te      0.51017286      2.69828679     -1.35540642
 Te     -1.67700167      0.51366603      2.25227792
 Te     -2.49579921      1.28926599     -0.56781578
 Te      2.59699482     -0.95686749      0.83123284
 Te     -0.36376310     -2.56854170      1.19847460
 Te     -1.16699391     -1.69383506     -1.91030327
 Te      1.61400733      1.70313419      1.71933096
 Te      1.45660098     -0.36872954     -2.55743227
  P      0.52832546     -1.38425554      3.96611819
  C      1.86979356     -2.67681319      4.24510318
  H      2.76274423     -2.32962635      3.71452950
  H      2.12822313     -2.73363544      5.30558976
  C      1.52628647     -4.08328825      3.75932217
  H      2.41769308     -4.71215681      3.78328326
  H      0.76423687     -4.53952915      4.39167907
  H      1.14490124     -4.05277353      2.73637996
  C     -0.93275987     -2.27868398      4.72758506
  H     -1.32012435     -2.96111538      3.96469995
  H     -0.59266922     -2.89335548      5.56667358
  C     -2.07221430     -1.37970843      5.20354240
  H     -2.93758032     -1.98935955      5.46916956
  H     -1.77864026     -0.79712709      6.07685416
  H     -2.36441329     -0.68631394      4.41165180
  C      0.96901558     -0.16657308      5.34340830
  H      0.17472917      0.58687563      5.35766429
  H      1.87722353      0.35827299      5.02750710
  C      1.16941309     -0.68955315      6.76672861
  H      1.29723834      0.15574641      7.44549760
  H      0.31077344     -1.26971435      7.10332013
  H      2.05855766     -1.31564980      6.83702235
  P      3.62955593      2.05981838     -1.40867755
  C      3.68313262      2.62645045     -3.19459470
  H      2.70961759      3.07310630     -3.41885200
  H      4.43177354      3.41536770     -3.31303394
  C      3.97479823      1.52238443     -4.20845003
  H      3.82891010      1.90009909     -5.22176852
  H      5.00128373      1.16661444     -4.11572223
  H      3.29966659      0.67748555     -4.05303198
  C      5.36031271      1.32000420     -1.27596579
  H      5.37499661      0.39738206     -1.86455350
  H      6.10545758      1.98949572     -1.71480125
  C      5.75578876      0.97954300      0.15967318
  H      6.72920065      0.48650449      0.17347866
  H      5.81224366      1.87625517      0.77754376
  H      5.01952140      0.30350322      0.60262806
  C      3.87345782      3.72411736     -0.57247816
  H      3.70952131      3.57862162      0.50058527
  H      3.05384694      4.35910397     -0.92416989
  C      5.19427579      4.46587146     -0.77599812
  H      5.12849413      5.44919363     -0.30658487
  H      6.02463860      3.92828577     -0.31937319
  H      5.41413994      4.60926183     -1.83401502
  P      2.52362991     -3.17172745     -1.30414239
  C      2.12284764     -4.14788459     -2.87070053
  H      2.11274429     -3.44426215     -3.70937604
  H      2.89981566     -4.89008570     -3.07269248
  C      0.77146323     -4.85591085     -2.80268078
  H      0.57519618     -5.38187934     -3.73840047
  H      0.75093886     -5.57957343     -1.98661991
  H     -0.02725121     -4.12795288     -2.64081053
  C      3.00315646     -4.61785973     -0.19268895
  H      2.07584491     -5.01102328      0.23669003
  H      3.44602509     -5.42442009     -0.78459236
  C      3.95315355     -4.25711722      0.94740722
  H      4.01414933     -5.08258275      1.65855861
  H      4.95538501     -4.05086028      0.57141017
  H      3.59957502     -3.36756721      1.47194563
  C      4.20411002     -2.50213662     -1.79070368
  H      4.66082308     -2.08231255     -0.89040343
  H      4.02899943     -1.66132724     -2.46925549
  C      5.19426826     -3.46374777     -2.44730365
  H      6.15384451     -2.95865618     -2.57258277
  H      5.35449638     -4.35181649     -1.83610565
  H      4.84619152     -3.77739467     -3.43121732
  P     -3.56208437     -2.21709257      0.28449019
  C     -3.42157269     -4.08445933      0.35886378
  H     -2.97053132     -4.34497699      1.32128906
  H     -4.42110850     -4.52860827      0.33155231
  C     -2.58006883     -4.70582402     -0.75266468
  H     -2.63590429     -5.79445003     -0.69863690
  H     -2.92567926     -4.38525377     -1.73554442
  H     -1.53789940     -4.40753565     -0.63915193
  C     -4.86558365     -2.08270024     -1.06386073
  H     -4.35193962     -2.21860864     -2.02068871
  H     -5.59810672     -2.89074731     -0.97748146
  C     -5.59480529     -0.74038914     -1.08237147
  H     -6.19145186     -0.65129137     -1.99161813
  H     -6.25881420     -0.64398628     -0.22289352
  H     -4.87808796      0.08412226     -1.05421826
  C     -4.59364688     -1.94345253      1.83655623
  H     -4.85440265     -0.88039829      1.86714492
  H     -3.92987024     -2.11411056      2.69089713
  C     -5.86323911     -2.77436518      2.02580243
  H     -6.37157516     -2.45332663      2.93687970
  H     -6.55036299     -2.64611539      1.18985981
  H     -5.62904974     -3.83414014      2.12324551
  P     -1.87900732      1.67764034     -3.50438922
  C     -3.54959925      0.99064805     -4.02246527
  H     -4.20833146      1.03836287     -3.15082176
  H     -3.99426672      1.62123320     -4.79823832
  C     -3.49777098     -0.44965120     -4.52904253
  H     -4.50977196     -0.83672322     -4.65878229
  H     -2.98037720     -0.50766225     -5.48736370
  H     -2.96930056     -1.08808123     -3.81662609
  C     -1.08133277      1.76541803     -5.21592794
  H     -0.98313275      0.74129258     -5.58974218
  H     -1.72160415      2.30193547     -5.92105990
  C      0.30598246      2.40093707     -5.18683037
  H      0.73527283      2.42085332     -6.18980696
  H      0.26457395      3.42139005     -4.80431815
  H      0.96332168      1.81791472     -4.53939849
  C     -2.37750525      3.46249618     -3.21761520
  H     -1.52296896      3.96807020     -2.75662327
  H     -3.16926430      3.44639009     -2.46203475
  C     -2.85052978      4.28497062     -4.41541595
  H     -3.19997521      5.25811490     -4.06559095
  H     -2.03905477      4.45191843     -5.12340469
  H     -3.67348471      3.79660920     -4.93762675
  P     -0.89681614      3.59131509      2.16252090
  C     -2.69397955      4.02829333      2.52723105
  H     -3.14411683      3.17355737      3.04189860
  H     -2.74523428      4.88677379      3.20262407
  C     -3.51626791      4.34205358      1.27900121
  H     -4.55707260      4.52085819      1.55400646
  H     -3.13496244      5.22908930      0.77144953
  H     -3.48182901      3.50373623      0.57870122
  C     -0.26587105      5.33723980      1.82350247
  H     -0.90082703      5.78910466      1.05518962
  H     -0.35516596      5.95932692      2.71873325
  C      1.17720445      5.35753440      1.32897555
  H      1.51206824      6.38393044      1.17089369
  H      1.84476999      4.87708808      2.04553594
  H      1.24595419      4.81949374      0.38105119
  C     -0.26410052      3.35981368      3.91190558
  H      0.82160344      3.48727203      3.87530373
  H     -0.44207340      2.31465554      4.18122042
  C     -0.83224612      4.24790953      5.01855310
  H     -0.28179303      4.06248920      5.94281448
  H     -0.73668327      5.30587930      4.77346361
  H     -1.88350224      4.02521198      5.20028412

