#B3LYP/6-31+G(d) OPT FREQ

146, Energy =   -192.72850746 au

0 1
 Co     -0.36700170     -1.99664175      0.91208922
 Co      0.62295633      1.71362267     -1.28724202
 Co     -1.89827581      0.14388494     -0.61949834
 Co     -0.03437518      1.19797275      1.67250807
 Co      2.32996852     -0.35238902      0.56743054
 Co      0.77110662     -1.32773053     -1.84781663
 Te      2.55838477      0.33352682     -1.75449819
 Te     -1.30832874      2.41522473      0.00884732
 Te     -0.73629293      0.32604111     -2.77684126
 Te      0.96959404     -0.84118588      2.54195570
 Te     -1.90556175     -0.33975718      1.78958200
 Te     -1.41169760     -2.15434944     -1.29319031
 Te      2.02676917      2.05684886      0.65918588
 Te      1.76695933     -2.63374074     -0.04119487
  P     -0.17999596      2.70164739      3.19366468
  C     -1.82966184      2.77318635      4.09700266
  H     -1.94847775      1.84374549      4.66346391
  H     -1.82706435      3.59583982      4.81770085
  C     -3.03442868      2.93839949      3.17282955
  H     -3.94793734      3.03066871      3.76279925
  H     -2.93165251      3.82467799      2.54617157
  H     -3.12974403      2.06683692      2.52345269
  C     -0.00946565      4.52703535      2.78885645
  H     -0.58251036      4.70190903      1.87228763
  H     -0.46808934      5.13593616      3.57403590
  C      1.42559934      5.00009483      2.56571557
  H      1.42441168      6.00728572      2.14577380
  H      1.98450058      5.01583584      3.50170326
  H      1.94030066      4.33358767      1.86883377
  C      0.96785278      2.53745630      4.67366891
  H      1.98487819      2.71399180      4.31058022
  H      0.93563698      1.48932903      4.99017041
  C      0.72246426      3.43195765      5.88945247
  H      1.53179819      3.29280748      6.60863478
  H      0.69334140      4.48450138      5.60832579
  H     -0.21588823      3.17735373      6.38150911
  P     -1.59500940     -3.70482588      1.32447228
  C     -1.53527077     -4.17633544      3.15478041
  H     -2.02711480     -3.38137595      3.72483960
  H     -2.08862206     -5.10144359      3.33748009
  C     -0.10716268     -4.34395965      3.67098119
  H     -0.11776755     -4.57118000      4.73823796
  H      0.40368311     -5.15385970      3.14850296
  H      0.45983427     -3.42201892      3.51903140
  C     -1.18497713     -5.39221104      0.59899710
  H     -0.09288436     -5.47014081      0.57977971
  H     -1.54835068     -6.18601943      1.25863982
  C     -1.71466786     -5.63860382     -0.81201770
  H     -1.26928143     -6.54592267     -1.22350068
  H     -2.79849174     -5.75630700     -0.80821631
  H     -1.46679874     -4.79959999     -1.46474286
  C     -3.45063002     -3.61737742      1.08796603
  H     -3.63912140     -3.58159749      0.01115279
  H     -3.77702129     -2.65203331      1.48888290
  C     -4.30495554     -4.72221815      1.70860790
  H     -5.33970722     -4.60370549      1.38178315
  H     -3.96199082     -5.71058289      1.40297564
  H     -4.28527352     -4.66882492      2.79690966
  P      4.01206230     -0.35175520      1.88749719
  C      5.57409418      0.45857494      1.20705594
  H      5.39038916      1.53629760      1.14704223
  H      6.41283077      0.30551694      1.89186518
  C      5.96958527     -0.05026395     -0.17697419
  H      6.84198536      0.49427128     -0.54171099
  H      6.21090555     -1.11365858     -0.14942326
  H      5.14783060      0.09882030     -0.88086603
  C      4.77424395     -1.98040848      2.43767367
  H      5.22225792     -2.45200126      1.55713449
  H      5.58635273     -1.79603940      3.14709669
  C      3.77733462     -2.95869685      3.05276568
  H      4.29435238     -3.85725551      3.39385656
  H      3.25765012     -2.50979954      3.89971283
  H      3.03426331     -3.24947910      2.30680023
  C      3.89636541      0.57063219      3.51416898
  H      3.18052310      0.03166419      4.14128780
  H      3.43935690      1.53876343      3.28524496
  C      5.17470647      0.81553988      4.31531896
  H      4.91463198      1.27935070      5.26866791
  H      5.70186137     -0.11543335      4.52372832
  H      5.84979495      1.48729682      3.78561775
  P      0.30964342      3.52553112     -2.38512169
  C     -1.31039019      4.04216043     -3.17507983
  H     -2.09825456      3.87604634     -2.43502947
  H     -1.29246466      5.11546502     -3.38680154
  C     -1.67130236      3.30007209     -4.46050839
  H     -2.69322213      3.54551804     -4.75466711
  H     -1.00101626      3.57722833     -5.27455700
  H     -1.60274374      2.22061060     -4.30719920
  C      1.46810900      3.81920855     -3.84629199
  H      1.25114795      3.05674766     -4.60106302
  H      1.27847829      4.79175409     -4.30902475
  C      2.94224644      3.70843896     -3.46107630
  H      3.57057618      3.81109281     -4.34730967
  H      3.22249120      4.48240829     -2.74570432
  H      3.13967540      2.73295266     -3.00769845
  C      0.63909501      5.05022479     -1.33433989
  H      1.51489925      4.83228761     -0.71391528
  H     -0.20805630      5.13262340     -0.64515842
  C      0.84975501      6.39458120     -2.02998564
  H      0.94536786      7.17780974     -1.27565162
  H      1.75897631      6.39028282     -2.63041328
  H      0.00882836      6.64682795     -2.67613398
  P     -4.02197743      0.30422607     -0.92592277
  C     -4.81955291     -1.01826042     -1.99700751
  H     -4.64839052     -1.98741721     -1.51769261
  H     -5.90112801     -0.86936073     -2.05787049
  C     -4.25129052     -1.06617767     -3.41457950
  H     -4.68498299     -1.90467392     -3.96202697
  H     -4.47421115     -0.14608347     -3.95565933
  H     -3.16764098     -1.19487385     -3.38698737
  C     -4.70844974      1.81607040     -1.81000405
  H     -4.08074118      1.98901845     -2.69034905
  H     -5.72005058      1.61697779     -2.17658734
  C     -4.72034780      3.08952843     -0.96659596
  H     -4.97365890      3.94755435     -1.59148010
  H     -5.44949309      3.02163686     -0.15908494
  H     -3.73365196      3.25963191     -0.52790857
  C     -5.13954837      0.22300148      0.57893559
  H     -4.85589819      1.05472726      1.23165413
  H     -4.86894300     -0.68560825      1.12611651
  C     -6.65413251      0.24654285      0.37093833
  H     -7.15048459      0.28494502      1.34233818
  H     -6.96445205      1.11842818     -0.20421558
  H     -6.99322030     -0.64989090     -0.14771487
  P      2.06402288     -2.36581798     -3.19080318
  C      1.43387691     -4.08903031     -3.65134575
  H      0.36747254     -3.99858617     -3.88296856
  H      1.93366961     -4.44887630     -4.55436943
  C      1.61468850     -5.13359543     -2.55254133
  H      1.06671602     -6.04264025     -2.80552686
  H      2.66793675     -5.38660887     -2.42695444
  H      1.24660961     -4.75500061     -1.59700242
  C      3.87923470     -2.77019423     -2.94472705
  H      4.02658236     -2.90455986     -1.86835331
  H      4.10658434     -3.73038752     -3.41729080
  C      4.87770769     -1.73060189     -3.45140993
  H      5.87227935     -1.95966500     -3.06469156
  H      4.92590634     -1.72539761     -4.54011531
  H      4.59428492     -0.73388567     -3.11161709
  C      2.05317155     -1.55542743     -4.89369170
  H      2.65900598     -0.64736731     -4.81332000
  H      1.02707745     -1.21549341     -5.07332370
  C      2.52144908     -2.36965590     -6.10040627
  H      2.62772234     -1.70971734     -6.96342588
  H      3.48386677     -2.84583279     -5.91407931
  H      1.79622269     -3.14279348     -6.35369799

