#B3LYP/6-31+G(d) OPT FREQ

146, Energy =   -192.72693183 au

0 1
 Co     -0.49836012     -2.24522284     -1.09217337
 Co      0.46521863      1.42332647      1.21368716
 Co     -2.00258506      0.59576575     -0.66111892
 Co     -1.29013242     -1.15384661      1.71694993
 Co      1.76321300     -1.23940548      0.67696195
 Co      0.77554344      0.48833618     -1.83755139
 Te      2.43516460      0.95245371     -0.13872745
 Te     -1.90293287      1.18993845      1.68958122
 Te     -0.36572132      2.39366521     -0.84904172
 Te      0.15330462     -3.00112168      1.13238177
 Te     -2.67217059     -1.72336313     -0.20659232
 Te     -1.25860223     -0.58490217     -2.66005868
 Te      0.76856056     -0.44895721      2.75377033
 Te      1.79346841     -1.70711724     -1.71053958
  P      0.06947014     -4.17555449     -1.81579309
  C      0.40859950     -4.34988517     -3.66195953
  H      1.34627399     -3.82457945     -3.86806560
  H      0.55769625     -5.40186538     -3.92347337
  C     -0.68731286     -3.76928646     -4.55313940
  H     -0.36730994     -3.78345311     -5.59632164
  H     -1.60850387     -4.34684003     -4.46647885
  H     -0.90357754     -2.73564394     -4.27009689
  C     -1.30405917     -5.47024376     -1.68369160
  H     -2.11844815     -5.15018883     -2.34153669
  H     -0.96129520     -6.44006791     -2.05324454
  C     -1.86135723     -5.62402651     -0.27157222
  H     -2.61487445     -6.41307350     -0.24618934
  H     -1.07041298     -5.87180558      0.43713808
  H     -2.32753977     -4.68972446      0.04751894
  C      1.57515526     -5.10154305     -1.18806941
  H      1.65098208     -4.92568822     -0.11139764
  H      2.44792361     -4.62329831     -1.64297502
  C      1.64691654     -6.60635603     -1.44217078
  H      2.62334952     -6.97596586     -1.12333602
  H      0.88289184     -7.13716335     -0.87439611
  H      1.52348092     -6.84188242     -2.49942815
  P      1.31461277      1.64357581     -3.55825952
  C      0.06857967      2.43788892     -4.71215813
  H     -0.62624029      3.01444127     -4.09549554
  H      0.56948446      3.14781363     -5.37688597
  C     -0.72484307      1.44708424     -5.56171301
  H     -1.53378724      1.96488949     -6.07964071
  H     -0.08576560      0.97047854     -6.30558521
  H     -1.15861036      0.66826485     -4.92902327
  C      2.42664707      0.82675993     -4.83833281
  H      1.86926643     -0.00424548     -5.28239531
  H      2.66248969      1.52219679     -5.64892534
  C      3.71925165      0.27368068     -4.24088788
  H      4.30316106     -0.23010988     -5.01284967
  H      4.32736664      1.06905181     -3.80876242
  H      3.48745724     -0.45021268     -3.45518493
  C      2.31553087      3.16526605     -3.09830363
  H      3.04267603      2.85453753     -2.34029116
  H      1.62181258      3.84369960     -2.58937228
  C      3.04656963      3.92892253     -4.20193564
  H      3.52121600      4.81315740     -3.77262396
  H      3.82322942      3.31543300     -4.65777155
  H      2.36103135      4.25744231     -4.98308475
  P      1.04470420      3.17536865      2.31852900
  C      1.96050976      4.52848392      1.39047654
  H      1.41221796      4.70607812      0.45875536
  H      1.94399070      5.46234432      1.95957423
  C      3.41054315      4.18985966      1.05195021
  H      3.83099159      4.95881914      0.40179878
  H      4.01891244      4.12685301      1.95473234
  H      3.46393984      3.22947763      0.53222168
  C      2.07937208      3.12015585      3.88534225
  H      3.03314544      2.64377334      3.63783863
  H      2.31054946      4.13127708      4.23303101
  C      1.42128032      2.32681802      5.01252450
  H      2.10489571      2.23955678      5.85851907
  H      0.50553537      2.81065888      5.35334225
  H      1.17069809      1.32063966      4.66441255
  C     -0.44708304      4.16527895      2.88893081
  H     -1.10157979      3.47366213      3.42911348
  H     -0.99712742      4.44699420      1.98410672
  C     -0.22667816      5.41274462      3.74508320
  H     -1.19325218      5.86577106      3.97315583
  H      0.26183627      5.16467060      4.68686824
  H      0.37983978      6.15337547      3.22426890
  P      3.72918986     -1.33447341      1.50882860
  C      5.23000476     -1.29647769      0.37820509
  H      5.23882057     -0.31913545     -0.11476333
  H      6.14844482     -1.37483022      0.96710999
  C      5.23992935     -2.38951616     -0.68812349
  H      6.08212158     -2.24081208     -1.36588619
  H      5.32941306     -3.37754613     -0.23511013
  H      4.31591082     -2.36008682     -1.27111344
  C      4.11793515     -2.92043508      2.45575786
  H      4.07256709     -3.75193965      1.74505640
  H      5.13617203     -2.89674455      2.85349631
  C      3.12992009     -3.19833678      3.58619842
  H      3.39489256     -4.12489121      4.09814489
  H      3.12645570     -2.38580238      4.31366519
  H      2.11949241     -3.30176863      3.18349068
  C      4.25124249     -0.01914997      2.73895235
  H      3.44141173      0.07669394      3.46818239
  H      4.28616794      0.92678433      2.18894682
  C      5.56771674     -0.20061200      3.49329279
  H      5.73313791      0.66812889      4.13324778
  H      5.54190174     -1.08696578      4.12672681
  H      6.41351779     -0.28452335      2.81114761
  P     -2.75678088     -1.43317850      3.24060658
  C     -2.67144058     -3.07736363      4.16561618
  H     -1.75416087     -3.08592733      4.76326424
  H     -3.51298760     -3.16640054      4.85851024
  C     -2.66264449     -4.29108200      3.23878987
  H     -2.60040282     -5.20978799      3.82426868
  H     -3.56740063     -4.32733104      2.63050784
  H     -1.79815469     -4.24586946      2.57201992
  C     -4.60150144     -1.42904160      2.90841946
  H     -4.81448763     -2.27839487      2.25173987
  H     -5.15112439     -1.59664647      3.83972503
  C     -5.12369496     -0.16259407      2.23687659
  H     -6.20721273     -0.21992229      2.11876934
  H     -4.88204300      0.72390961      2.82324084
  H     -4.67282465     -0.05551562      1.25010653
  C     -2.62866147     -0.25816266      4.69982939
  H     -2.93044110      0.72886951      4.33612971
  H     -1.56397285     -0.17558016      4.94559270
  C     -3.40781824     -0.58457834      5.97332961
  H     -3.28748682      0.23195281      6.68770339
  H     -4.47193267     -0.70285835      5.76855361
  H     -3.03888924     -1.49857674      6.43821040
  P     -3.71218678      1.66962036     -1.36928690
  C     -5.26204566      0.68850063     -1.78369996
  H     -5.67354018      0.27741629     -0.85674902
  H     -6.02183413      1.34891187     -2.21125257
  C     -5.00345999     -0.46138116     -2.75527498
  H     -5.94105861     -0.96422415     -2.99772696
  H     -4.55035987     -0.10090646     -3.67948385
  H     -4.32800827     -1.18885671     -2.30020867
  C     -3.60136712      2.67635430     -2.95322741
  H     -3.04805824      2.07221602     -3.67906666
  H     -4.59964592      2.83681072     -3.37153863
  C     -2.90227460      4.02673121     -2.80426113
  H     -2.69354990      4.44847197     -3.78878147
  H     -3.52338201      4.73275745     -2.25285925
  H     -1.95729462      3.90765853     -2.26774510
  C     -4.42588382      2.93314430     -0.17973849
  H     -3.66207470      3.70348405     -0.03098368
  H     -4.53616191      2.43541156      0.78856691
  C     -5.75063304      3.60073984     -0.54965204
  H     -5.98067228      4.37797466      0.18135390
  H     -5.70381074      4.06288208     -1.53541376
  H     -6.56583120      2.87747296     -0.54448194

