#B3LYP/6-31+G(d) OPT FREQ

146, Energy =   -192.73293690 au

0 1
 Co      0.03168196     -1.96542395      1.05083931
 Co     -0.05180816      1.79920423     -1.14857206
 Co     -2.15098847     -0.27338160     -0.24143915
 Co     -0.37542894      1.20122537      1.82714969
 Co      2.19746398      0.13421507      0.54262043
 Co      0.61822822     -1.08888755     -1.83652366
 Te      2.10531761      0.86711456     -1.75961096
 Te     -2.01693116      2.09285435      0.26618653
 Te     -1.35373629      0.19527590     -2.47213512
 Te      1.12958795     -0.52529484      2.65703525
 Te     -1.77054926     -0.74977128      2.14168585
 Te     -1.23348940     -2.39136073     -1.01114092
 Te      1.41242260      2.43365687      0.66954488
 Te      2.09153708     -2.16920366     -0.23407737
  P     -0.32678532      2.86465902      3.18725676
  C     -1.53783481      2.66795316      4.62731906
  H     -1.17758930      1.85873990      5.27084750
  H     -1.56859206      3.57775890      5.23302213
  C     -2.95310218      2.33245030      4.16313778
  H     -3.62001305      2.23701391      5.02152208
  H     -3.34297588      3.10843312      3.50298955
  H     -2.95016125      1.38562705      3.61950407
  C     -0.81550071      4.60049628      2.65840420
  H     -1.57509864      4.48218027      1.87820820
  H     -1.29322063      5.12536090      3.49133142
  C      0.31265803      5.47326218      2.11110274
  H     -0.10597471      6.36453068      1.64050633
  H      0.98861767      5.78903759      2.90578007
  H      0.89170793      4.92455842      1.36658792
  C      1.23890681      3.17763233      4.17108584
  H      1.98801199      3.55971148      3.47154346
  H      1.60239579      2.20092455      4.50754546
  C      1.15777860      4.11129353      5.37928384
  H      2.16375475      4.29723580      5.76013550
  H      0.71047766      5.06911771      5.11461489
  H      0.56949363      3.66400316      6.18019721
  P     -4.19424428     -0.64934340      0.30397557
  C     -4.77438298     -2.31305263      0.95422983
  H     -4.15129224     -2.55751856      1.81988173
  H     -5.80641582     -2.24321351      1.31082043
  C     -4.68230650     -3.44836607     -0.06465234
  H     -4.84825309     -4.40705619      0.42965431
  H     -5.43246582     -3.33224593     -0.84738202
  H     -3.69547472     -3.46361992     -0.53287559
  C     -5.40117612     -0.47091871     -1.13837864
  H     -5.16332288     -1.24823955     -1.87112580
  H     -6.43296434     -0.63788611     -0.81800260
  C     -5.28113158      0.88623955     -1.82707778
  H     -5.95839403      0.93946475     -2.68092364
  H     -5.52036755      1.70040849     -1.14213370
  H     -4.25938893      1.02613546     -2.18491828
  C     -4.97974601      0.46090182      1.59519725
  H     -4.57098385      1.46632804      1.45076706
  H     -4.60971137      0.11291857      2.56462323
  C     -6.50429044      0.54983181      1.65234977
  H     -6.79637477      1.13884169      2.52372694
  H     -6.90389770      1.03880126      0.76431628
  H     -6.96007447     -0.43656887      1.74123695
  P      4.01562611      0.12677842      1.68252305
  C      5.51044701      0.67026534      0.66123662
  H      5.38177112      1.72560327      0.39961286
  H      6.43046642      0.58886107      1.24647721
  C      5.66716089     -0.13966147     -0.62405866
  H      6.53221598      0.21211221     -1.18851974
  H      5.80208143     -1.19962400     -0.40487291
  H      4.77765244     -0.02549774     -1.24684212
  C      4.75321080     -1.43480934      2.42060540
  H      4.55023399     -2.24388582      1.71163205
  H      5.84114957     -1.33818489      2.48922084
  C      4.20775814     -1.83576048      3.78983771
  H      4.56758270     -2.83154189      4.05407235
  H      4.53106613     -1.13758649      4.56199960
  H      3.11657988     -1.84803037      3.77708936
  C      4.17101899      1.33873292      3.10294566
  H      3.48757978      1.00299208      3.88862708
  H      3.78038426      2.29660471      2.74372342
  C      5.55576903      1.57016900      3.70816026
  H      5.46136821      2.20338846      4.59229968
  H      6.02252032      0.63241320      4.00863013
  H      6.21358340      2.07318789      2.99972315
  P     -0.09503815     -4.07061201      1.41723199
  C      1.06059989     -4.60553303      2.81200513
  H      0.99068033     -3.85333408      3.60460837
  H      0.74433244     -5.55977688      3.24078008
  C      2.51848431     -4.72865150      2.37169900
  H      3.16961658     -4.79352446      3.24465218
  H      2.66719472     -5.62191528      1.76441085
  H      2.81354776     -3.86242032      1.77473865
  C      0.29181726     -5.44850861      0.20374108
  H      1.14050177     -5.10856181     -0.39850961
  H      0.62608749     -6.33431508      0.75245526
  C     -0.84219095     -5.85824414     -0.73407469
  H     -0.45933188     -6.53603171     -1.49899754
  H     -1.64022438     -6.36551626     -0.19219997
  H     -1.26300226     -4.97996051     -1.22605264
  C     -1.75195138     -4.62453547      2.11252422
  H     -2.46943102     -4.56750355      1.28896505
  H     -2.06405816     -3.86623309      2.83870742
  C     -1.85495373     -6.00578884      2.76059474
  H     -2.90438011     -6.23541042      2.95434004
  H     -1.44972158     -6.78289772      2.11303432
  H     -1.32185104     -6.03393594      3.71063598
  P     -0.83001001      3.37262901     -2.37536928
  C     -2.61293533      3.54418172     -2.93009177
  H     -3.23724285      3.17469683     -2.11114818
  H     -2.85910421      4.60178027     -3.06147084
  C     -2.97723613      2.80166061     -4.21425617
  H     -4.05910244      2.82048940     -4.35645679
  H     -2.50759715      3.26430511     -5.08251901
  H     -2.65331674      1.76110298     -4.15472325
  C      0.03986314      3.71819860     -4.01287344
  H     -0.11499887      2.84979717     -4.66050013
  H     -0.40821176      4.57874448     -4.51758609
  C      1.54313504      3.94062035     -3.85838482
  H      2.00907730      4.04222332     -4.83992373
  H      1.75204575      4.84149285     -3.28058453
  H      1.99971195      3.09019112     -3.34483002
  C     -0.63359540      5.02810752     -1.49576815
  H      0.35147290      5.02687076     -1.01794653
  H     -1.36755572      5.02763252     -0.68273188
  C     -0.78407782      6.31675553     -2.30404251
  H     -0.72947676      7.17260846     -1.62869180
  H      0.01287150      6.41521116     -3.04050347
  H     -1.74148375      6.35569184     -2.82364099
  P      1.73856678     -1.48098246     -3.62566153
  C      1.71053552     -0.32230994     -5.10362997
  H      2.07805806      0.64929045     -4.75999524
  H      2.40340888     -0.67561451     -5.87330636
  C      0.33133838     -0.13643573     -5.73407796
  H      0.36529885      0.66576850     -6.47322085
  H      0.00285124     -1.04997273     -6.23089516
  H     -0.40641411      0.12401528     -4.97183716
  C      1.20435397     -3.07569773     -4.48687533
  H      0.16122038     -2.95465023     -4.79550680
  H      1.78784607     -3.25598173     -5.39359300
  C      1.29456422     -4.28553108     -3.55929434
  H      0.90835096     -5.17573237     -4.05823380
  H      2.32509802     -4.47569824     -3.25768839
  H      0.70234567     -4.10667293     -2.65976139
  C      3.59203681     -1.72960506     -3.48646762
  H      3.77824048     -2.26359612     -2.54882361
  H      4.02788938     -0.73304185     -3.36598496
  C      4.31865586     -2.45032947     -4.62139529
  H      5.39352326     -2.42147597     -4.43328586
  H      4.01468199     -3.49474974     -4.68503665
  H      4.12978209     -1.97406945     -5.58369623

