#B3LYP/6-31+G(d) OPT FREQ

146, Energy =   -192.73081328 au

0 1
 Co     -0.43997754     -1.97409320     -1.33808969
 Co      0.51014108      1.39540985      1.34258833
 Co     -2.15094299      0.33154293      0.29259860
 Co     -0.30395528     -1.65963122      1.70799317
 Co      2.07663187     -0.65570144     -0.25650049
 Co     -0.08126261      1.04636394     -1.84190412
 Te      1.89595137      1.74906649     -0.62754094
 Te     -1.31378227      0.34740234      2.58226616
 Te     -1.06967022      2.47967663     -0.14738710
 Te      1.20723511     -2.86092592      0.24960853
 Te     -2.23978532     -2.10226355      0.26876899
 Te     -2.08882054     -0.34801231     -2.05784197
 Te      1.77522717     -0.53875783      2.15515138
 Te      1.31840559     -0.80216318     -2.55278584
  P      4.18033279     -0.29348017     -0.15698530
  C      5.09130085      0.33914088     -1.67550633
  H      4.66137760      1.31560978     -1.92100477
  H      6.14907649      0.49700458     -1.44574462
  C      4.98203309     -0.56933135     -2.89817380
  H      5.41741454     -0.07559407     -3.76862441
  H      5.50696588     -1.51125633     -2.73566819
  H      3.93394251     -0.79088104     -3.11451401
  C      5.20982802     -1.83842482      0.18491263
  H      5.05155692     -2.53328576     -0.64601559
  H      6.27621413     -1.59815674      0.20018940
  C      4.82128520     -2.54493036      1.48196659
  H      5.46995684     -3.40635179      1.64904248
  H      4.90424722     -1.87403401      2.33784107
  H      3.78835050     -2.89533688      1.42228631
  C      4.86858196      0.91889412      1.09854980
  H      4.27667780      0.82126177      2.01394510
  H      4.66948856      1.91902418      0.70283154
  C      6.35098430      0.82347916      1.45857674
  H      6.61183292      1.65046539      2.12181105
  H      6.57281431     -0.10808686      1.97830731
  H      6.98314603      0.88723101      0.57249227
  P      0.19590692     -3.59232657     -2.60292755
  C     -0.29411446     -3.41467187     -4.41842109
  H      0.30744265     -2.60042374     -4.83459323
  H     -0.04932011     -4.32261214     -4.97668900
  C     -1.77283307     -3.09384850     -4.62668997
  H     -1.96315956     -2.87427011     -5.67882564
  H     -2.40020225     -3.93537445     -4.32958557
  H     -2.06294955     -2.22232496     -4.03356712
  C     -0.66480954     -5.24125333     -2.25010445
  H     -1.73537315     -5.03107349     -2.15663089
  H     -0.54634979     -5.92643396     -3.09452337
  C     -0.19186437     -5.92625733     -0.97079611
  H     -0.84054844     -6.77162061     -0.73505466
  H      0.82944981     -6.29202404     -1.07447211
  H     -0.21085062     -5.22550486     -0.13507146
  C      1.97436899     -4.13771257     -2.84433580
  H      2.42670811     -4.23216145     -1.85300503
  H      2.49165228     -3.31332910     -3.34365062
  C      2.23623509     -5.42560902     -3.62595534
  H      3.31443064     -5.56233285     -3.73077615
  H      1.83580715     -6.29586112     -3.10675936
  H      1.80121214     -5.38763941     -4.62487706
  P      0.84317693      2.86625060      2.87030160
  C      1.81176424      4.43422104      2.46734897
  H      1.22157531      5.01907314      1.75402342
  H      1.93213732      5.04528250      3.36641585
  C      3.18929546      4.17331944      1.86425546
  H      3.68350398      5.11859160      1.63335703
  H      3.81915083      3.61256182      2.55608649
  H      3.09011727      3.59905074      0.93979891
  C      1.70739281      2.40817084      4.47119373
  H      2.72046513      2.08006466      4.21662480
  H      1.80822325      3.28726598      5.11496390
  C      1.02017621      1.28892382      5.25047874
  H      1.57634647      1.07544412      6.16460796
  H      0.00004714      1.56295075      5.51882462
  H      0.98536263      0.37941880      4.64872506
  C     -0.72342085      3.67823683      3.50844505
  H     -1.36846129      2.87513121      3.87800544
  H     -1.23315660      4.10112740      2.63561603
  C     -0.61372680      4.75791254      4.58515531
  H     -1.61523714      5.11060680      4.83889509
  H     -0.15234703      4.36733604      5.49193996
  H     -0.03248963      5.61198915      4.23875719
  P     -0.35487921      2.28065882     -3.58006346
  C     -2.03651390      2.79181726     -4.24096039
  H     -2.61343742      3.19897120     -3.40540382
  H     -1.92597696      3.59542179     -4.97483323
  C     -2.83019291      1.65330795     -4.87791068
  H     -3.82660847      2.00223440     -5.15377879
  H     -2.33229654      1.27990101     -5.77311319
  H     -2.93486489      0.82715859     -4.17012559
  C      0.46240601      1.82187126     -5.20895101
  H      0.04912396      0.85925940     -5.52694023
  H      0.20775981      2.55004283     -5.98454126
  C      1.98068916      1.68267618     -5.11741728
  H      2.38440398      1.36769978     -6.08117460
  H      2.45140515      2.62430539     -4.83447332
  H      2.23908110      0.92644320     -4.37265694
  C      0.37455660      3.98042761     -3.24988175
  H      1.38032307      3.82204092     -2.84482250
  H     -0.21235866      4.41251242     -2.43131595
  C      0.45101499      4.98908376     -4.39585455
  H      0.91169944      5.90994764     -4.03354968
  H      1.05431839      4.60911221     -5.21978264
  H     -0.54064509      5.23362657     -4.77626681
  P     -3.94186100      1.46770124      0.61290533
  C     -5.41840824      0.41887888      1.15217126
  H     -5.19207462     -0.00923363      2.13422806
  H     -6.31126716      1.03978885      1.26533805
  C     -5.72893902     -0.71619621      0.17799026
  H     -6.56227016     -1.31334702      0.55203637
  H     -5.99558336     -0.32497807     -0.80477806
  H     -4.85918613     -1.36869494      0.06623654
  C     -4.75504480      2.35877209     -0.83305048
  H     -4.57518397      1.74741067     -1.72378191
  H     -5.83899236      2.40040527     -0.68975562
  C     -4.23571219      3.77078153     -1.09855141
  H     -4.58063913      4.11761798     -2.07408814
  H     -4.59029965      4.46952199     -0.34074593
  H     -3.14346317      3.78170926     -1.08779281
  C     -3.98781794      2.77881693      1.94806086
  H     -3.31033250      3.57867177      1.63372426
  H     -3.54261363      2.33464554      2.84434516
  C     -5.34201739      3.38620856      2.31781633
  H     -5.18498180      4.23797635      2.98205610
  H     -5.87949687      3.73663222      1.43700735
  H     -5.96761663      2.66131616      2.83806016
  P     -1.33391073     -2.97848252      3.04515036
  C     -0.43870497     -3.09733669      4.70931570
  H     -0.55012290     -2.14072787      5.22913959
  H     -0.89807168     -3.86570466      5.33665315
  C      1.04896833     -3.41557167      4.56203020
  H      1.51211773     -3.47835525      5.54675724
  H      1.19328212     -4.36884874      4.05051083
  H      1.55370419     -2.63376149      3.99126359
  C     -1.47620531     -4.82727148      2.70518528
  H     -0.52644949     -5.13923636      2.25918413
  H     -1.57531628     -5.37283770      3.64861705
  C     -2.61048804     -5.24864857      1.77390686
  H     -2.50614043     -6.30536455      1.52561206
  H     -3.58247180     -5.09925664      2.24323703
  H     -2.58699426     -4.66734867      0.85142151
  C     -3.05931901     -2.56954047      3.64067607
  H     -3.73486513     -2.66590208      2.78575050
  H     -3.05718761     -1.50938498      3.91034548
  C     -3.61939550     -3.38043563      4.80853832
  H     -4.64484414     -3.06816719      5.00494260
  H     -3.62592927     -4.44838466      4.58605977
  H     -3.03690985     -3.22134714      5.71431282

