#B3LYP/6-31+G(d) OPT FREQ

146, Energy =   -192.73266407 au

0 1
 Co     -1.40700064     -1.45082318     -1.07499146
 Co      1.21345245      1.36568058      1.10504182
 Co     -1.68499676      0.46355808      1.46172367
 Co      0.80385289     -1.66152861      0.97676798
 Co      1.52488474     -0.12626538     -1.60243155
 Co     -1.00943810      1.57184323     -1.29771229
 Te      1.30158462      2.28111178     -1.13268758
 Te      0.26161609     -0.14388902      2.78551458
 Te     -0.82658768      2.68413396      0.83504669
 Te      0.80922659     -2.41401350     -1.35618459
 Te     -1.59023170     -1.95729207      1.31318521
 Te     -2.98316133      0.30712154     -0.59077189
 Te      2.80101524     -0.35150453      0.44314768
 Te     -0.50945035     -0.18001732     -2.92694667
  P     -2.37762285      2.27101645     -2.79308335
  C     -3.52073608      1.23253328     -3.85861112
  H     -3.73722526      0.31902550     -3.29761134
  H     -4.47401373      1.75275611     -3.98835902
  C     -2.98527968      0.84585023     -5.23593464
  H     -3.64877671      0.10855186     -5.69143802
  H     -2.92747678      1.71094039     -5.89647016
  H     -1.99170752      0.40504188     -5.14394733
  C     -1.58862054      3.36963075     -4.11384374
  H     -0.93338617      2.74061619     -4.72342689
  H     -2.34583981      3.79002471     -4.78086182
  C     -0.75206032      4.49740896     -3.51308010
  H     -0.23730194      5.04503663     -4.30420254
  H     -1.37582530      5.19762153     -2.95636318
  H     -0.00182662      4.08850872     -2.83049992
  C     -3.63828216      3.46358790     -2.04412364
  H     -3.12063089      4.05453831     -1.28088553
  H     -4.36005205      2.83937417     -1.50752751
  C     -4.39198628      4.40926444     -2.97855384
  H     -5.16254514      4.93688236     -2.41325347
  H     -3.72262687      5.15159414     -3.41234929
  H     -4.87796387      3.86569623     -3.78911520
  P      2.10425261      2.29153310      2.82781679
  C      3.13315128      3.80900386      2.36003551
  H      2.45355339      4.58686875      1.99727700
  H      3.65659593      4.21151694      3.23143928
  C      4.15276638      3.49669435      1.26640477
  H      4.71234784      4.39564590      1.00312503
  H      4.85749680      2.73212748      1.59621942
  H      3.64132679      3.13251516      0.37262861
  C      3.38206651      1.41207479      3.89111543
  H      3.89822986      0.70431666      3.23359698
  H      4.13463538      2.12422064      4.24261075
  C      2.83024900      0.64629481      5.09248738
  H      3.60371691     -0.00497759      5.50300048
  H      2.50142641      1.32756187      5.87710840
  H      1.97949318      0.03199769      4.79289583
  C      0.97449209      3.07044609      4.10366905
  H      0.48757288      2.25770390      4.65088950
  H      0.18159542      3.58192317      3.54726447
  C      1.58791112      4.05511700      5.09923967
  H      0.84203050      4.32160922      5.85033471
  H      2.44832957      3.62364585      5.61032302
  H      1.90599274      4.96919543      4.59819193
  P     -2.25993561     -3.39328262     -1.36090221
  C     -2.05519586     -4.10318622     -3.09719889
  H     -0.99858614     -4.35725191     -3.22861114
  H     -2.63400810     -5.02444791     -3.20596459
  C     -2.46793496     -3.13109429     -4.20057778
  H     -2.26488438     -3.56884319     -5.17927694
  H     -3.53172900     -2.89756579     -4.13961144
  H     -1.90564866     -2.19808949     -4.11457882
  C     -4.12634779     -3.61306046     -1.20486533
  H     -4.59696432     -3.13511859     -2.06978890
  H     -4.38412694     -4.67556827     -1.24784616
  C     -4.71525816     -3.00065213      0.06315738
  H     -5.79015373     -3.18444805      0.10625088
  H     -4.25056699     -3.42368532      0.95442549
  H     -4.54740375     -1.92119311      0.07055329
  C     -1.67001884     -4.84940052     -0.33916154
  H     -2.14450189     -4.76297944      0.64234583
  H     -0.59619561     -4.71734278     -0.17545536
  C     -1.90961327     -6.25720577     -0.88349787
  H     -1.61499881     -6.98776138     -0.12784212
  H     -2.96092475     -6.42022668     -1.12226264
  H     -1.31571622     -6.43797447     -1.77929519
  P      2.19170438     -3.14424714      1.66666171
  C      3.60062497     -3.83250682      0.63854068
  H      4.08272677     -2.98229949      0.14631026
  H      4.34891105     -4.28986739      1.29233439
  C      3.18988854     -4.85573991     -0.41809291
  H      4.03671533     -5.07364535     -1.07100213
  H      2.86021569     -5.78675303      0.04367285
  H      2.37464563     -4.46161507     -1.02908512
  C      1.45757779     -4.76392768      2.30578761
  H      0.99594376     -5.28097397      1.45891949
  H      2.23631531     -5.42457871      2.69651972
  C      0.38717157     -4.53800428      3.37183442
  H     -0.07429987     -5.48719145      3.64900927
  H      0.81280330     -4.08455461      4.26770970
  H     -0.39207850     -3.87374065      2.98771102
  C      3.16387144     -2.57432448      3.17085754
  H      2.46170090     -2.05000410      3.82640183
  H      3.86843471     -1.81769359      2.80985381
  C      3.92247973     -3.61106635      3.99868125
  H      4.49660614     -3.09925041      4.77331520
  H      3.23761739     -4.30344928      4.48748054
  H      4.61718486     -4.18521335      3.38560685
  P      3.10252025      0.57738303     -2.87748399
  C      2.80501347      1.75211790     -4.31264302
  H      2.38045932      2.67015919     -3.89509314
  H      3.75552013      2.02057679     -4.78374355
  C      1.86080682      1.21281388     -5.38579638
  H      1.60793579      2.00594644     -6.09144944
  H      2.32391195      0.39425069     -5.93783503
  H      0.93817778      0.84236601     -4.93339756
  C      3.95977187     -0.82178171     -3.81375742
  H      3.22972124     -1.25667726     -4.50368804
  H      4.78831462     -0.44659834     -4.42021033
  C      4.45486950     -1.92490618     -2.88065809
  H      4.90949732     -2.73219441     -3.45703433
  H      5.19334952     -1.54262233     -2.17495162
  H      3.61606011     -2.33392986     -2.31293021
  C      4.55575821      1.45951756     -2.08451402
  H      4.73665427      0.98122055     -1.11642621
  H      4.21814689      2.47780960     -1.86711519
  C      5.87348408      1.52999547     -2.85509620
  H      6.57577416      2.16073190     -2.30691829
  H      6.31968163      0.54163354     -2.96264425
  H      5.73505955      1.95922491     -3.84761448
  P     -3.04648050      1.26996462      2.92689381
  C     -2.79965036      0.61691978      4.67323092
  H     -1.80185255      0.92385067      5.00340160
  H     -3.52413520      1.05852511      5.36311876
  C     -2.89879101     -0.90506498      4.76504833
  H     -2.64445184     -1.23621383      5.77321918
  H     -3.90902524     -1.24429042      4.53354371
  H     -2.20926190     -1.37671064      4.06192448
  C     -4.88296892      0.90191099      2.75180884
  H     -4.98810807     -0.17406959      2.57791173
  H     -5.40907802      1.12609656      3.68469736
  C     -5.55556427      1.64379141      1.59817121
  H     -6.59782169      1.33211485      1.51188734
  H     -5.52771822      2.72289408      1.75080934
  H     -5.04610372      1.41218115      0.65923416
  C     -3.08208377      3.11059292      3.28775338
  H     -3.27772592      3.61786731      2.33802688
  H     -2.06243797      3.39424925      3.56639245
  C     -4.04863181      3.63898898      4.34826041
  H     -3.95599633      4.72493270      4.40858475
  H     -5.08203106      3.39988519      4.09941164
  H     -3.82302315      3.22486599      5.33067791

