146
Energy =   -192.73175898 au
 Co      0.01103551     -2.24061873      0.09204339
 Co      0.25677031      2.08902744     -0.41079533
 Co     -2.12221536     -0.05201568      0.02601568
 Co      0.11772795      0.36825414      2.10577608
 Co      2.33951697     -0.27438240      0.09952681
 Co      0.08696415     -0.29022907     -2.26424088
 Te      2.01548544      1.13857345     -1.81790650
 Te     -1.52755163      1.96150047      1.23230236
 Te     -1.61825057      1.40174383     -1.81341688
 Te      1.48089947     -1.65912805      1.92477175
 Te     -1.44744744     -1.50412303      1.88102306
 Te     -1.68937789     -1.80127430     -1.59618807
 Te      1.94901654      1.78320236      1.29907642
 Te      1.76788460     -1.89757179     -1.60517190
  P     -0.15897245      0.37398425     -4.28862698
  C     -1.81424520      0.22895707     -5.16602772
  H     -2.50273202      0.92234649     -4.67291425
  H     -1.71850220      0.54718859     -6.20840542
  C     -2.42068072     -1.17222014     -5.13720522
  H     -3.41675873     -1.15635149     -5.58273944
  H     -1.80285693     -1.87686602     -5.69514631
  H     -2.50544937     -1.53007452     -4.10813291
  C      0.91025185     -0.54943408     -5.54365555
  H      0.57791809     -1.59228166     -5.56163993
  H      0.76188622     -0.15182833     -6.55127990
  C      2.39589804     -0.52141634     -5.19219408
  H      2.96940689     -1.07647798     -5.93637188
  H      2.77104295      0.50208317     -5.15492932
  H      2.55938572     -0.98178229     -4.21482347
  C      0.22983965      2.16076919     -4.70339519
  H      1.17020416      2.41069347     -4.20324180
  H     -0.54652054      2.76689048     -4.22523314
  C      0.33764959      2.56502712     -6.17318688
  H      0.49793367      3.64302667     -6.23536984
  H      1.17881111      2.06995673     -6.65785021
  H     -0.57187627      2.32523794     -6.72376573
  P     -4.08634767     -0.45401067      0.78966817
  C     -4.82183892     -2.17672130      0.90070279
  H     -4.16139608     -2.76827384      1.54204646
  H     -5.79903184     -2.13778486      1.39158783
  C     -4.97771129     -2.88782976     -0.44245882
  H     -5.25852669     -3.92985212     -0.28049849
  H     -5.74914071     -2.41176304     -1.04870043
  H     -4.03820434     -2.86222198     -0.99973684
  C     -5.44504147      0.39277056     -0.21234624
  H     -5.44446246     -0.04642157     -1.21493925
  H     -6.43152748      0.20274285      0.21906616
  C     -5.21885124      1.89787330     -0.34542692
  H     -6.00143714      2.34309066     -0.96192899
  H     -5.22613847      2.38490930      0.63044510
  H     -4.25289733      2.09189942     -0.81852914
  C     -4.46888836      0.14554204      2.52464828
  H     -3.98360482      1.11925211      2.64166264
  H     -3.95612679     -0.53953912      3.20766569
  C     -5.93038515      0.27298284      2.95286720
  H     -5.97120883      0.54772121      4.00851360
  H     -6.44175575      1.04758740      2.38196433
  H     -6.46928713     -0.66588416      2.82528120
  P      4.23862849     -0.80333294      0.93536293
  C      5.65449857      0.08989445      0.05637957
  H      5.57385474      1.15873458      0.27931128
  H      6.62249881     -0.25074976      0.43379783
  C      5.61863342     -0.10304173     -1.45898374
  H      6.42792350      0.45904338     -1.92784347
  H      5.73031660     -1.15621522     -1.72047847
  H      4.66854304      0.25487842     -1.86405404
  C      4.89610308     -2.56035687      0.78960595
  H      4.52502060     -2.95482285     -0.16254638
  H      5.98832797     -2.54921199      0.72482875
  C      4.47712704     -3.51515791      1.90580392
  H      4.73593589     -4.53990513      1.63394799
  H      4.97794426     -3.26920079      2.84220352
  H      3.39985261     -3.45861583      2.07078580
  C      4.64111869     -0.36285277      2.70920248
  H      4.01223343     -0.98724431      3.35079709
  H      4.30492888      0.66774654      2.86072221
  C      6.09615637     -0.47668076      3.16366154
  H      6.15215796     -0.30249877      4.23975926
  H      6.50357459     -1.46603314      2.95653188
  H      6.72060553      0.26587265      2.66726583
  P      0.01362482      0.86597457      4.20022201
  C     -1.66349643      1.17067950      4.99213546
  H     -2.34138051      0.38878121      4.63486124
  H     -1.59834398      1.06410474      6.07872461
  C     -2.26796075      2.53617431      4.67132755
  H     -3.30364780      2.57587590      5.01263333
  H     -1.71048200      3.33568009      5.15995865
  H     -2.25160716      2.71206418      3.59220770
  C      0.95715488      2.27450075      5.00765310
  H      0.61681172      3.20945620      4.55178135
  H      0.71155077      2.33285899      6.07221572
  C      2.47095743      2.18222267      4.83526136
  H      2.95450668      3.04415096      5.29776277
  H      2.86837765      1.27411532      5.28944644
  H      2.71892948      2.17525197      3.77051572
  C      0.56439445     -0.60277327      5.23790427
  H      1.52745729     -0.93675464      4.83782717
  H     -0.14302214     -1.41200549      5.02390152
  C      0.68777657     -0.43762375      6.75274405
  H      0.97196225     -1.39406942      7.19543629
  H      1.45270483      0.29483582      7.00864942
  H     -0.25549061     -0.12464238      7.20007035
  P      0.10504668     -4.22627780     -0.72051754
  C      0.44073598     -4.85726732     -2.45392990
  H      1.49893620     -4.67826364     -2.66394539
  H      0.28184657     -5.94010650     -2.46689113
  C     -0.38461070     -4.23876922     -3.57783826
  H     -0.17959436     -4.75825705     -4.51594809
  H     -1.45107771     -4.30625975     -3.36480324
  H     -0.12725722     -3.18695496     -3.69950756
  C     -1.40839520     -5.29438306     -0.33919874
  H     -2.23732992     -4.89464754     -0.93154176
  H     -1.25153390     -6.32787620     -0.66034225
  C     -1.80128956     -5.27399657      1.13592964
  H     -2.75510302     -5.78433970      1.27898810
  H     -1.04688918     -5.77114008      1.74708548
  H     -1.90273041     -4.24399015      1.48924936
  C      1.47008501     -5.18046966      0.17009893
  H      1.38170347     -4.94956999      1.23681573
  H      2.41690998     -4.74012763     -0.16007247
  C      1.54523435     -6.69747695     -0.00144612
  H      2.38685535     -7.08343993      0.57697913
  H      0.63720256     -7.18170172      0.35694964
  H      1.69690638     -6.97142909     -1.04524719
  P      0.21234801      4.20662928     -0.71706687
  C      1.05882363      5.02692820     -2.18355784
  H      0.56872694      4.67783599     -3.09777816
  H      0.92615247      6.11189125     -2.14186491
  C      2.55124694      4.71481669     -2.27251923
  H      2.96737672      5.13354923     -3.19018002
  H      3.08984474      5.13513477     -1.42247808
  H      2.71137501      3.63310730     -2.28158994
  C      0.91610817      5.29393731      0.64127106
  H      1.97680511      5.04231885      0.74217289
  H      0.86071872      6.34919263      0.35803603
  C      0.24835248      5.09672459      2.00032258
  H      0.71389598      5.74661638      2.74319180
  H     -0.81654062      5.32552853      1.95569170
  H      0.36326646      4.06209274      2.32557569
  C     -1.51683342      4.90594972     -0.91737347
  H     -2.11016560      4.52411194     -0.07947778
  H     -1.93736788      4.44507767     -1.81809624
  C     -1.68972912      6.42190919     -1.00195053
  H     -2.74976680      6.65686785     -1.11407422
  H     -1.32754125      6.91181980     -0.09840045
  H     -1.15795486      6.83539545     -1.85872549
