146
Energy =   -192.68814600 au
 Co      0.91936174     -2.15900283      0.10937386
 Co     -0.31980751      2.11173344      0.06615395
 Co     -1.66367281     -0.92850901     -0.47317505
 Co      0.32540573      0.07464609      2.15432265
 Co      1.41308913      0.38077762     -0.18413711
 Co      0.57954010     -0.10534362     -2.41256380
 Te      1.20377782      2.18869742     -1.79322733
 Te     -1.91097884      0.73884736      1.31325068
 Te     -1.47154615      1.12538328     -1.86239245
 Te      2.48719694     -0.92591671      1.51500830
 Te     -0.95713797     -1.94317672      1.65295914
 Te     -0.32332741     -2.31851294     -1.96314821
 Te      1.61061066      2.06555549      1.52640464
 Te      2.52649392     -1.31419701     -1.49543111
  P      3.43827187      3.20626410     -0.43760329
  C      4.25292875      4.06005408     -1.93748274
  H      3.76462883      5.02966172     -2.07759833
  H      5.31234788      4.25358704     -1.74976324
  C      4.13378989      3.25974672     -3.23226885
  H      4.60563252      3.80101801     -4.05430155
  H      4.61577302      2.28588298     -3.13673128
  H      3.08470821      3.09689471     -3.48192518
  C      4.67434976      1.80499225     -0.24774472
  H      4.15963758      0.89911798     -0.59830157
  H      5.52634929      1.96273177     -0.91443387
  C      5.19594179      1.52903265      1.16136832
  H      5.75459495      0.59101398      1.16171288
  H      5.85711583      2.32275949      1.50746097
  H      4.36817521      1.42860123      1.86351241
  C      4.00276131      4.44646680      0.88456721
  H      3.91861713      3.92959400      1.84369867
  H      3.25063850      5.24003817      0.90341971
  C      5.38394635      5.09134097      0.76569721
  H      5.60830858      5.63193646      1.68748239
  H      6.16392696      4.34658992      0.60905988
  H      5.41396053      5.80358211     -0.05867134
  P     -3.58676596     -1.89298217     -0.77904154
  C     -3.79178165     -3.73342720     -1.09684670
  H     -3.23939074     -4.26850630     -0.31840724
  H     -4.84215874     -4.02350426     -1.00018671
  C     -3.27940819     -4.18678212     -2.46168374
  H     -3.30319514     -5.27564691     -2.52844532
  H     -3.88890385     -3.77459882     -3.26645269
  H     -2.24758328     -3.85255931     -2.60425901
  C     -4.83308118     -1.25235628     -2.03142157
  H     -4.43877855     -1.44792591     -3.03295124
  H     -5.77770658     -1.79846312     -1.95336234
  C     -5.09321155      0.24669187     -1.89791069
  H     -5.78547205      0.57895489     -2.67324585
  H     -5.52066263      0.48763939     -0.92398970
  H     -4.15772890      0.80019917     -2.00962366
  C     -4.57457486     -1.76533770      0.81763108
  H     -4.49458855     -0.72809976      1.16165952
  H     -4.03609362     -2.36648958      1.55914451
  C     -6.04739796     -2.17408244      0.81848991
  H     -6.44330809     -2.08547395      1.83191747
  H     -6.63646388     -1.52839532      0.16770740
  H     -6.17650492     -3.20630126      0.49324689
  P      0.29893087     -0.02619293      4.31328107
  C     -1.31269581     -0.50360914      5.15337208
  H     -1.62927158     -1.46318632      4.73051012
  H     -1.16387992     -0.65400781      6.22664350
  C     -2.43347646      0.51497176      4.94939217
  H     -3.36146235      0.14196673      5.38624965
  H     -2.18731051      1.46734598      5.42031635
  H     -2.59812546      0.69036451      3.88284389
  C      0.77761671      1.43100254      5.39954985
  H      0.09558344      2.25522446      5.16672255
  H      0.63931055      1.19363970      6.45840477
  C      2.20879934      1.90827493      5.16122231
  H      2.40695788      2.80852742      5.74518307
  H      2.93203618      1.14319546      5.44515289
  H      2.35196160      2.14337408      4.10274156
  C      1.40130725     -1.38445581      4.99722003
  H      2.38861288     -1.25911604      4.54010599
  H      1.00709881     -2.32886529      4.60601303
  C      1.56572277     -1.51197942      6.51198713
  H      2.20248002     -2.37037349      6.73389087
  H      2.03499793     -0.62378517      6.93408206
  H      0.60588462     -1.66489751      7.00512424
  P      1.15905043     -4.19542477      0.75973992
  C      2.58024739     -5.13072653     -0.05372967
  H      3.51989786     -4.65385480      0.24334666
  H      2.61597235     -6.16669080      0.29471726
  C      2.48624609     -5.12626182     -1.57941789
  H      3.33715939     -5.65766553     -2.00882724
  H      1.56861837     -5.61065800     -1.91560181
  H      2.49288955     -4.10104029     -1.95554183
  C     -0.19420038     -5.46986779      0.47116812
  H     -0.62362500     -5.25559778     -0.51331178
  H      0.23465880     -6.47519357      0.41706473
  C     -1.32120791     -5.46887664      1.50277779
  H     -2.14546213     -6.09264111      1.15262348
  H     -0.97778879     -5.85908232      2.46094478
  H     -1.69340307     -4.45496205      1.66197191
  C      1.57748728     -4.47366970      2.56571074
  H      0.70364988     -4.16541895      3.14881752
  H      2.37550430     -3.76648836      2.81681503
  C      2.00237364     -5.87581123      3.00259073
  H      2.10120949     -5.90223860      4.08930182
  H      1.26752439     -6.62484675      2.70826234
  H      2.96465495     -6.14535009      2.56775447
  P     -1.37919290      3.83380795      0.84875139
  C     -3.24977849      3.93832609      0.71915956
  H     -3.66487933      3.08880367      1.27031824
  H     -3.62586499      4.85227262      1.18776955
  C     -3.75325913      3.88424117     -0.72311472
  H     -4.84101550      3.79709927     -0.73614638
  H     -3.47268734      4.78665739     -1.26768010
  H     -3.32929001      3.02430987     -1.24651731
  C     -0.96898834      5.57523563      0.24633081
  H     -1.36120294      5.68140453     -0.76985975
  H     -1.45545809      6.34028445      0.85821080
  C      0.53688841      5.82743627      0.21299783
  H      0.75062249      6.80334095     -0.22553414
  H      0.95584828      5.80116060      1.21961474
  H      1.03434413      5.06142059     -0.38734115
  C     -1.15672775      4.04767839      2.69878484
  H     -0.11024674      4.32585841      2.86107995
  H     -1.28024416      3.05841748      3.15173363
  C     -2.05650027      5.03762504      3.43819517
  H     -1.72815762      5.11588272      4.47622376
  H     -2.01059300      6.03089267      2.99118951
  H     -3.09330082      4.70172888      3.43520342
  P      0.55909615     -0.33101440     -4.55230615
  C     -1.05216909     -0.13080081     -5.49458010
  H     -1.35471204      0.91959016     -5.43295193
  H     -0.91487775     -0.36968835     -6.55316083
  C     -2.17848058     -0.99566260     -4.93133539
  H     -3.09016092     -0.85272048     -5.51379279
  H     -1.91178515     -2.05258725     -4.95408986
  H     -2.37983363     -0.71358323     -3.89719006
  C      1.13330303     -1.94934330     -5.30712137
  H      0.53255848     -2.74292638     -4.85036958
  H      0.93670921     -1.97317710     -6.38314809
  C      2.60950797     -2.25124943     -5.05441029
  H      2.84524152     -3.26537522     -5.38110219
  H      3.25054158     -1.55491194     -5.59592742
  H      2.83757421     -2.16870122     -3.98804971
  C      1.62134684      0.91774618     -5.47315577
  H      2.63968866      0.82962399     -5.08006352
  H      1.26887964      1.91199976     -5.17744195
  C      1.67229289      0.84381105     -6.99970357
  H      2.34781608      1.61387518     -7.37668891
  H      2.03951328     -0.12531740     -7.33652053
  H      0.68751772      1.01234049     -7.43504252
