#B3LYP/6-31+G(d) OPT FREQ

146, Energy =   -192.73085720 au

0 1
 Co     -0.68228447     -1.98578479      0.70877078
 Co      0.59274619      1.87486620     -0.96106133
 Co     -1.98725878      1.04494746      0.42321233
 Co      0.62455167      0.53155145      1.92637469
 Co      1.78317338     -0.89038609     -0.72147128
 Co     -1.14709886     -0.66787289     -1.98566732
 Te      0.95567091      0.23497418     -2.73054623
 Te     -0.29080731      2.64337589      1.16182725
 Te     -1.62385113      1.69810763     -1.92080020
 Te      1.58845583     -1.66064748      1.57947211
 Te     -1.60321452     -0.40171986      2.33216928
 Te     -2.78769232     -1.14255109     -0.23064980
 Te      2.42822253      1.13954974      0.46659607
 Te      0.23218113     -2.58434642     -1.48753010
  P      0.60088859      0.93233659      4.03146643
  C      2.15331655      1.86292680      4.57634005
  H      2.13540519      2.85759131      4.11926262
  H      2.16372488      2.00122532      5.66084005
  C      3.43733435      1.14895355      4.15617457
  H      4.30819189      1.73008255      4.46378352
  H      3.50062064      0.16007436      4.61240690
  H      3.46592845      1.03104730      3.06997997
  C      0.64785801     -0.44371661      5.31371898
  H      1.23989324     -1.25722857      4.88214260
  H      1.17891769     -0.10727223      6.20931635
  C     -0.71442945     -0.99819752      5.72646003
  H     -0.58333266     -1.92194213      6.29255422
  H     -1.25599736     -0.28643807      6.34953478
  H     -1.32155524     -1.21087074      4.84473751
  C     -0.71542026      2.06942087      4.72504438
  H     -1.66362167      1.52470415      4.69698256
  H     -0.81910275      2.90027731      4.01901950
  C     -0.50359838      2.63538434      6.12903192
  H     -1.40123792      3.17279278      6.44030128
  H     -0.31086030      1.84467116      6.85398626
  H      0.33299917      3.33365061      6.14730407
  P      3.72961476     -1.66349182     -1.16652950
  C      4.67570199     -1.15203580     -2.70872010
  H      4.88596589     -0.08027227     -2.64129998
  H      5.63932809     -1.66764451     -2.75192665
  C      3.91205048     -1.42370756     -4.00308415
  H      4.47653745     -1.04540996     -4.85683278
  H      3.74454407     -2.49235964     -4.14176935
  H      2.94122186     -0.92097687     -3.97951082
  C      3.85827581     -3.52701849     -1.36386171
  H      3.09489246     -3.82158559     -2.09145267
  H      4.82933419     -3.81194214     -1.77982196
  C      3.61494012     -4.30314609     -0.07048752
  H      3.49833791     -5.36598840     -0.28838910
  H      4.44785321     -4.18192340      0.62229555
  H      2.71025267     -3.94584881      0.42486744
  C      5.02772393     -1.32569290      0.14359553
  H      4.62196466     -1.69592752      1.09140195
  H      5.09437977     -0.23777488      0.25045359
  C      6.43211985     -1.89363015     -0.05920288
  H      7.04119345     -1.67044559      0.81865939
  H      6.40917853     -2.97509045     -0.19105952
  H      6.91481257     -1.44842143     -0.92902342
  P     -2.48996801     -1.80851349     -3.20429686
  C     -1.74319286     -2.19514487     -4.89588289
  H     -0.90619706     -2.88418155     -4.74306891
  H     -2.47116693     -2.69953694     -5.53699779
  C     -1.23346953     -0.94769940     -5.61589907
  H     -0.75819752     -1.22682288     -6.55768537
  H     -2.05276043     -0.26033723     -5.83088571
  H     -0.49775774     -0.42614981     -4.99786153
  C     -4.10898518     -1.04423163     -3.79104758
  H     -3.89713784      0.00276647     -4.03170774
  H     -4.44021414     -1.52223637     -4.71789681
  C     -5.24759911     -1.08773190     -2.77435448
  H     -6.07767898     -0.46792371     -3.11752730
  H     -5.61040456     -2.10658863     -2.63708822
  H     -4.91014780     -0.71543394     -1.80547159
  C     -3.03954234     -3.52637416     -2.70245190
  H     -3.69313301     -3.41467293     -1.83267405
  H     -2.14862973     -4.05717875     -2.35249400
  C     -3.74679285     -4.38723136     -3.74857946
  H     -4.10216696     -5.30530501     -3.27695149
  H     -4.60531309     -3.86992219     -4.17673274
  H     -3.06834360     -4.66222050     -4.55586672
  P     -1.00738711     -3.95498028      1.51441513
  C     -0.86758878     -4.15515792      3.37831351
  H     -1.38673678     -3.30733566      3.83623536
  H     -1.38092136     -5.06256925      3.70833926
  C      0.56985774     -4.19513455      3.89323814
  H      0.58080225     -4.10413648      4.98050180
  H      1.05605315     -5.13182596      3.61887942
  H      1.15043575     -3.37170222      3.46772885
  C     -0.08396209     -5.50670269      1.00265123
  H      0.98435591     -5.31611722      1.14305621
  H     -0.34742607     -6.33366635      1.66922386
  C     -0.31094059     -5.93317703     -0.44555973
  H      0.32600784     -6.78556752     -0.68753595
  H     -1.34995407     -6.21512326     -0.61764025
  H     -0.06122091     -5.10927677     -1.11946097
  C     -2.79576227     -4.48827418      1.27637348
  H     -3.00165641     -4.44559983      0.20207672
  H     -3.41739446     -3.70817407      1.72917806
  C     -3.24338241     -5.85077648      1.80679668
  H     -4.29657233     -6.00168554      1.56273448
  H     -2.67088120     -6.66017527      1.35501755
  H     -3.13506687     -5.91181183      2.88939027
  P     -3.24952400      2.78584446      0.41116996
  C     -3.77448484      3.33875942      2.14150386
  H     -2.88942330      3.74654300      2.63971176
  H     -4.52083853      4.13564487      2.08910829
  C     -4.33853106      2.19550583      2.98259834
  H     -4.50651072      2.53014867      4.00756567
  H     -5.28619292      1.84347471      2.57279779
  H     -3.64012037      1.35446440      3.00266145
  C     -4.98037906      2.51399477     -0.30827910
  H     -5.29819890      1.51242407     -0.00011655
  H     -5.69011513      3.22130176      0.13065835
  C     -5.06371588      2.60235745     -1.83011423
  H     -6.02723349      2.22310535     -2.17486583
  H     -4.95667556      3.63308273     -2.16867768
  H     -4.26979211      2.01136754     -2.29116643
  C     -2.80682487      4.44780982     -0.33305162
  H     -2.70279240      4.30203996     -1.41152502
  H     -1.81380585      4.71602099      0.03916303
  C     -3.75949417      5.61569265     -0.07958270
  H     -3.43993295      6.47287609     -0.67522642
  H     -4.78227722      5.36775900     -0.36283143
  H     -3.75100554      5.91126899      0.96935370
  P      1.91344264      3.37540705     -1.70990673
  C      1.13734456      4.52216484     -2.99359573
  H      0.33883684      5.09180013     -2.50691311
  H      1.87397100      5.24146916     -3.36199940
  C      0.54680673      3.76564699     -4.18209722
  H      0.12102116      4.46828828     -4.90022458
  H      1.31032116      3.17120892     -4.68567350
  H     -0.24578212      3.09372873     -3.84409602
  C      3.50498161      2.97397041     -2.62469624
  H      3.30837414      2.06989222     -3.21047779
  H      3.73580599      3.77047128     -3.33875521
  C      4.73310910      2.72982032     -1.74911212
  H      5.54554528      2.32858805     -2.35759438
  H      5.07662900      3.65464064     -1.28554231
  H      4.50238307      2.01511282     -0.95757301
  C      2.47822765      4.64139050     -0.44649042
  H      3.17102640      4.13159866      0.23051860
  H      1.60105060      4.89758554      0.15793189
  C      3.12350326      5.92848109     -0.96007310
  H      3.51108494      6.50196168     -0.11608453
  H      3.95034922      5.71681681     -1.63788585
  H      2.39540303      6.54687483     -1.48473338

