#B3LYP/6-31+G(d) OPT FREQ

146, Energy =   -192.73446200 au

0 1
 Co     -0.66512597     -2.19739239      0.11813686
 Co      0.66169320      1.92480265     -0.32097616
 Co     -2.09614591      0.50365813     -0.22720823
 Co     -0.12436205      0.32301627      2.15350565
 Co      2.06850264     -0.93473704      0.44034641
 Co      0.31798814     -0.43913318     -2.18338141
 Te      2.39577285      0.59108689     -1.39998649
 Te     -1.23130537      2.26542581      1.19078005
 Te     -1.01525076      1.59717153     -2.07190058
 Te      0.64413659     -1.99410366      2.14324903
 Te     -2.09078351     -1.02390591      1.69792346
 Te     -1.89946783     -1.33083380     -1.80409868
 Te      2.07822424      1.22721068      1.52373172
 Te      1.32461006     -2.44954092     -1.30392510
  P     -1.12536215     -4.12564938     -0.70829942
  C     -0.71076981     -4.90000220     -2.36485417
  H      0.36676454     -5.08674057     -2.37233309
  H     -1.21296099     -5.87033453     -2.42966340
  C     -1.06594812     -4.09270937     -3.60917128
  H     -0.87872975     -4.69055524     -4.50328354
  H     -2.11416752     -3.79552833     -3.59873202
  H     -0.45412256     -3.19227661     -3.65911506
  C     -2.93945255     -4.64946618     -0.61547116
  H     -3.48809741     -4.02501229     -1.32714003
  H     -3.06636906     -5.68785949     -0.93409579
  C     -3.54648960     -4.46644408      0.77341044
  H     -4.62481263     -4.62965635      0.73825981
  H     -3.11234407     -5.17065370      1.48424293
  H     -3.36060882     -3.45347751      1.14079539
  C     -0.30669723     -5.43024606      0.38705046
  H     -0.47956611     -5.13648661      1.42753212
  H      0.77114329     -5.33744702      0.21828049
  C     -0.70669618     -6.89537006      0.21426779
  H     -0.13784425     -7.50820349      0.91622823
  H     -1.76692753     -7.04328407      0.41760184
  H     -0.49344393     -7.24841324     -0.79443414
  P      3.61969635     -2.14833959      1.28942183
  C      5.28363884     -1.87244750      0.43467727
  H      5.62916184     -0.86159317      0.67456191
  H      6.03277592     -2.57211658      0.81546155
  C      5.19959427     -2.01525188     -1.08392137
  H      6.18391556     -1.86603958     -1.53070401
  H      4.83590143     -3.00481207     -1.36401026
  H      4.51637261     -1.26822431     -1.49375800
  C      3.58218481     -4.02498721      1.20987989
  H      3.07561431     -4.28535866      0.27422498
  H      4.60136247     -4.41704645      1.13915945
  C      2.86530488     -4.72524900      2.36300479
  H      2.73354119     -5.78274431      2.12760368
  H      3.43656450     -4.64717276      3.28808331
  H      1.88324789     -4.27898528      2.52811331
  C      4.13725428     -1.83438667      3.06382556
  H      3.32481706     -2.19064454      3.70409757
  H      4.17736139     -0.74779175      3.19507014
  C      5.45759913     -2.43548985      3.54655447
  H      5.55801345     -2.27120449      4.62102232
  H      5.49929876     -3.50830407      3.35970268
  H      6.30597985     -1.96437191      3.05065866
  P      0.39318629      1.06719918      4.10157923
  C     -0.95198983      0.72846899      5.38898467
  H     -0.98375970     -0.34902297      5.58004866
  H     -0.71656022      1.22190789      6.33584728
  C     -2.33136525      1.18372449      4.91864871
  H     -3.07940720      0.98364125      5.68737973
  H     -2.33660628      2.25174141      4.69638529
  H     -2.61031741      0.64106586      4.01326224
  C      0.65378442      2.89533414      4.45198864
  H      0.04024926      3.44049645      3.72702370
  H      0.26832464      3.14748391      5.44436518
  C      2.09528874      3.39053027      4.34423663
  H      2.11087466      4.48153928      4.32516793
  H      2.69256502      3.05321452      5.19118472
  H      2.55692832      3.01868811      3.42788587
  C      1.84470239      0.27625457      4.98506416
  H      2.75670375      0.62724384      4.49345331
  H      1.78394101     -0.79917598      4.78691076
  C      1.97064424      0.48973520      6.49382788
  H      2.92614868      0.08884089      6.83706629
  H      1.93101494      1.54746931      6.75317977
  H      1.17432000     -0.02733118      7.02878108
  P      0.83187502      0.21314276     -4.16082357
  C     -0.56117137      0.39221347     -5.41659555
  H     -1.13990570      1.27854086     -5.13893364
  H     -0.15074493      0.56199454     -6.41592861
  C     -1.50220546     -0.80856863     -5.47471798
  H     -2.31667034     -0.61070789     -6.17358701
  H     -0.97319249     -1.70345209     -5.80489710
  H     -1.93090713     -1.00633467     -4.48942710
  C      1.96441366     -0.90570522     -5.17854507
  H      1.39378746     -1.79349765     -5.46881822
  H      2.26626491     -0.40331302     -6.10220752
  C      3.20747136     -1.35631032     -4.41620135
  H      3.83347462     -1.98549873     -5.05099524
  H      3.79516091     -0.49907209     -4.08510489
  H      2.91660342     -1.93324489     -3.53479592
  C      1.69394570      1.85823737     -4.40913096
  H      2.72566245      1.73196182     -4.06934165
  H      1.23011576      2.57348952     -3.72375343
  C      1.70513999      2.46658272     -5.81116722
  H      2.33737487      3.35646213     -5.80915743
  H      2.10375682      1.76854653     -6.54766861
  H      0.70282216      2.76409511     -6.11863604
  P      0.75736614      4.06023146     -0.49547605
  C     -0.71085789      5.12454159     -0.97362837
  H     -1.56834750      4.76410672     -0.39665127
  H     -0.53385953      6.16066936     -0.67099213
  C     -1.06535423      5.10805890     -2.45886452
  H     -2.01142931      5.62770254     -2.61935820
  H     -0.29459922      5.60022929     -3.05245826
  H     -1.17233827      4.07928088     -2.80998300
  C      2.06068549      4.78803728     -1.65057382
  H      1.79784847      4.50965514     -2.67557658
  H      2.06029531      5.88064797     -1.60804739
  C      3.46231407      4.25857388     -1.35314438
  H      4.17147089      4.63445587     -2.09239287
  H      3.79770128      4.56696108     -0.36229371
  H      3.46755650      3.16559928     -1.39328313
  C      1.21507143      4.89330696      1.12440949
  H      2.02381872      4.30442231      1.56749873
  H      0.35003766      4.77273091      1.78492630
  C      1.63310082      6.36334419      1.11291203
  H      1.78755278      6.69823146      2.14034192
  H      2.56595923      6.50428227      0.56776194
  H      0.86857235      6.99579655      0.66184087
  P     -4.17435638      0.70177731      0.26041914
  C     -5.36988959     -0.74521621      0.20479553
  H     -5.00059970     -1.49647167      0.90948647
  H     -6.35741432     -0.43147813      0.55667525
  C     -5.52110820     -1.38832818     -1.17263801
  H     -6.09793421     -2.31108325     -1.09097742
  H     -6.03636150     -0.71847936     -1.86184551
  H     -4.54120444     -1.62646147     -1.59304371
  C     -5.08754977      1.88678151     -0.89193689
  H     -5.07822295      1.45015936     -1.89560313
  H     -6.13563100      1.99441960     -0.60022427
  C     -4.42348679      3.26063829     -0.95992021
  H     -4.96278517      3.90694057     -1.65423948
  H     -4.40637362      3.73979466      0.01965501
  H     -3.39399120      3.15845263     -1.31006825
  C     -4.63016591      1.38039296      1.94796913
  H     -3.88147036      2.13588475      2.20725054
  H     -4.49841819      0.55684568      2.65674828
  C     -6.02290501      1.97903754      2.14127297
  H     -6.16436104      2.22308323      3.19576562
  H     -6.14101128      2.89533623      1.56345214
  H     -6.80494857      1.27884128      1.84703878

