#B3LYP/6-31+G(d) OPT FREQ

146, Energy =   -192.68737909 au

0 1
 Co      0.87336515     -2.27036479      0.02913915
 Co     -0.19172772      2.14932923      0.16299688
 Co     -1.70064902     -0.86456056     -0.45684739
 Co      0.40793138     -0.06603590      2.14927497
 Co      1.32764673      0.26745465     -0.17975526
 Co      0.45741374     -0.06905703     -2.41373010
 Te      1.27990871      2.12875091     -1.74519615
 Te     -1.79677741      0.75496423      1.37595039
 Te     -1.50103136      1.26183248     -1.72689536
 Te      2.53056822     -1.09397078      1.40316191
 Te     -0.96934922     -2.00577716      1.59463430
 Te     -0.44914241     -2.28824874     -1.99992657
 Te      1.76903826      1.88344889      1.56884479
 Te      2.40290354     -1.36032111     -1.61054823
  P      1.06890032     -4.29908795      0.71075470
  C      2.51297095     -5.25875270     -0.03418504
  H      3.44466475     -4.81831917      0.33537545
  H      2.49756514     -6.30463637      0.28495709
  C      2.51473009     -5.20613024     -1.56187924
  H      3.38036906     -5.74148488     -1.95546361
  H      1.61068583     -5.66156153     -1.96836932
  H      2.56265051     -4.16966937     -1.90458990
  C     -0.29042564     -5.55303329      0.36225339
  H     -0.65173052     -5.35105964     -0.65184276
  H      0.11726203     -6.56852944      0.35711837
  C     -1.48043217     -5.50247224      1.31889976
  H     -2.29548775     -6.11644336      0.93183724
  H     -1.20696952     -5.87518027      2.30619176
  H     -1.83798415     -4.47714862      1.43120064
  C      1.40345118     -4.58059250      2.53319947
  H      0.51679244     -4.24302374      3.07928156
  H      2.21297201     -3.89797716      2.81381420
  C      1.76751299     -5.99307151      2.99101779
  H      1.83063928     -6.01589105      4.08052917
  H      1.01749482     -6.71892694      2.67741608
  H      2.73353332     -6.29766593      2.58873202
  P      0.29723919     -0.19146757     -4.55841537
  C     -1.37262748      0.05502055     -5.37857689
  H     -1.66965508      1.09888286     -5.23412175
  H     -1.30849846     -0.12134942     -6.45618287
  C     -2.45761564     -0.84550261     -4.79163598
  H     -3.41417273     -0.64962138     -5.27897431
  H     -2.20773711     -1.89827269     -4.92475332
  H     -2.56497938     -0.65011845     -3.72418694
  C      0.81086821     -1.77857848     -5.41649712
  H      0.22076551     -2.58598482     -4.97028630
  H      0.56709537     -1.75011479     -6.48267502
  C      2.29283653     -2.10743701     -5.24221163
  H      2.50398042     -3.10404985     -5.63331076
  H      2.91874243     -1.38798598     -5.77125273
  H      2.56530912     -2.08577007     -4.18327967
  C      1.29959065      1.08939237     -5.50439442
  H      2.34629374      0.96488382     -5.20796757
  H      0.99511102      2.07221446     -5.12808386
  C      1.21936048      1.09540344     -7.03151607
  H      1.88610850      1.86453700     -7.42580110
  H      1.52442602      0.13531159     -7.44720351
  H      0.20779578      1.31566616     -7.37191981
  P      3.64153226      2.57913888     -0.57480576
  C      4.56275663      2.81898330     -2.21728263
  H      4.01430970      3.56441618     -2.80116831
  H      5.57942443      3.19384417     -2.07181958
  C      4.62928720      1.52035437     -3.02173459
  H      5.11751062      1.69495028     -3.98192063
  H      5.18809896      0.75416955     -2.48286203
  H      3.62521162      1.13708050     -3.20803453
  C      4.99410492      1.58592050      0.30629894
  H      4.64224402      0.54588599      0.30364701
  H      5.91987891      1.61869092     -0.27320532
  C      5.28751717      1.97847152      1.75025400
  H      5.95417517      1.24070081      2.20030815
  H      5.76418026      2.95676888      1.80872296
  H      4.36198523      2.00381301      2.32768201
  C      3.77685638      4.31602920      0.10667113
  H      3.62785092      4.24987493      1.18648705
  H      2.91946969      4.86808113     -0.29054666
  C      5.05251615      5.10784203     -0.18253347
  H      5.03042241      6.04226326      0.38123885
  H      5.94118100      4.55072666      0.11351757
  H      5.13159286      5.35252683     -1.24126300
  P      0.32170738     -0.20337691      4.30359506
  C     -1.26478027     -0.83074560      5.08968139
  H     -1.50490029     -1.78811879      4.61486232
  H     -1.12413925     -1.02182907      6.15750379
  C     -2.45230421      0.11453931      4.91212284
  H     -3.36447257     -0.35846503      5.28004625
  H     -2.29793204      1.04379222      5.46160969
  H     -2.59020688      0.35984976      3.85542545
  C      0.62358998      1.28858564      5.40696387
  H     -0.10318773      2.05767280      5.12474213
  H      0.43675189      1.04358574      6.45667913
  C      2.02619326      1.87474466      5.25835144
  H      2.11113473      2.79687400      5.83561873
  H      2.78541988      1.17464153      5.60822248
  H      2.22653583      2.10335948      4.20793023
  C      1.52835656     -1.45476154      5.01597831
  H      2.51514718     -1.22323325      4.60112847
  H      1.24865773     -2.42804185      4.59828292
  C      1.64460198     -1.58924851      6.53478518
  H      2.36825222     -2.37096990      6.77300636
  H      1.98724566     -0.65990520      6.98877499
  H      0.68980592     -1.86270903      6.98352961
  P     -3.68893876     -1.70566793     -0.69648177
  C     -4.02717334     -3.49867712     -1.14803753
  H     -3.50065211     -4.12920755     -0.42460516
  H     -5.09354333     -3.72374365     -1.05344866
  C     -3.56604449     -3.87647661     -2.55340743
  H     -3.68239210     -4.94989463     -2.71143793
  H     -4.14471713     -3.34757912     -3.31142215
  H     -2.51061989     -3.61920188     -2.68263467
  C     -4.97760447     -0.88645702     -1.79392540
  H     -4.67255230     -1.01957381     -2.83593720
  H     -5.94841653     -1.37892028     -1.68624438
  C     -5.12777964      0.60885440     -1.52006377
  H     -5.84551068      1.04782878     -2.21507573
  H     -5.47459614      0.78955909     -0.50195340
  H     -4.16649116      1.11387960     -1.65093318
  C     -4.56020709     -1.66038864      0.97057315
  H     -4.41276669     -0.65515748      1.38109901
  H     -3.99965010     -2.33445751      1.62805422
  C     -6.04570888     -2.01210539      1.04594006
  H     -6.36920841     -1.97928793      2.08805575
  H     -6.64937344     -1.30122154      0.48225411
  H     -6.23927851     -3.01375706      0.66232381
  P     -1.05279871      4.03641651      0.81151476
  C     -2.35174073      4.81037271     -0.30718278
  H     -3.22554638      4.15083375     -0.32474303
  H     -2.68242221      5.77760396      0.08177479
  C     -1.84884012      4.99639532     -1.73904543
  H     -2.63312747      5.43595231     -2.35764917
  H     -0.97780381      5.65245368     -1.76565518
  H     -1.57106206      4.03108707     -2.16837109
  C      0.03151471      5.55526708      1.07262446
  H      0.65805200      5.66690700      0.18136904
  H     -0.57108951      6.46494599      1.15127770
  C      0.94054596      5.44106544      2.29575061
  H      1.69051146      6.23363819      2.28333696
  H      0.36735973      5.52224957      3.21943883
  H      1.45468613      4.47655682      2.29764315
  C     -2.00620192      4.00748621      2.42691380
  H     -1.31953382      3.65653977      3.20494582
  H     -2.76445526      3.22387732      2.32581928
  C     -2.68304674      5.29320045      2.90234510
  H     -3.16208669      5.11256592      3.86642772
  H     -1.96294846      6.10140436      3.02744622
  H     -3.44907846      5.61755852      2.19823310

