146
Energy =   -192.73024445 au
 Co     -0.34452797     -2.07685653      0.34087751
 Co     -0.13241163      2.23621113     -0.34677719
 Co     -2.34594359      0.49840223      0.81980601
 Co      0.35357868      0.23876018      2.19596638
 Co      1.80593174     -0.11186768     -0.62526762
 Co     -1.12352254     -0.24516092     -1.95934948
 Te      0.73639025      1.21072548     -2.37238285
 Te     -0.98908230      2.23865154      1.90479570
 Te     -2.33359330      1.72793490     -1.28083438
 Te      1.80743051     -1.50177229      1.36611076
 Te     -1.57904256     -1.27599093      2.28367189
 Te     -2.57954030     -1.53296943     -0.47518398
 Te      1.83483206      1.72053590      1.00409246
 Te      0.67757784     -1.86825794     -1.86853211
  P      3.85514073     -0.07638830     -1.26926244
  C      4.19607544      0.38363066     -3.05789699
  H      3.81096389      1.39536367     -3.22024903
  H      5.27068145      0.40362830     -3.25940901
  C      3.52759745     -0.56050194     -4.05638398
  H      3.66017097     -0.18506993     -5.07234160
  H      3.95883796     -1.56023304     -3.99688510
  H      2.45807586     -0.63592522     -3.85311586
  C      4.81182990     -1.69403920     -1.21021260
  H      4.17406610     -2.46383608     -1.65704219
  H      5.71195317     -1.62855351     -1.82901778
  C      5.19931165     -2.14265765      0.19798117
  H      5.59663414     -3.15856201      0.16864353
  H      5.95770881     -1.48689598      0.62595297
  H      4.32391949     -2.13123118      0.85266190
  C      5.04084183      1.08304874     -0.39299991
  H      5.01119845      0.82536698      0.67070991
  H      4.61428821      2.08759688     -0.46585636
  C      6.49685420      1.13191420     -0.85777280
  H      7.06209188      1.79493021     -0.20029402
  H      6.95967198      0.14606896     -0.82621533
  H      6.57199626      1.51783638     -1.87412797
  P     -3.98407264      1.58086079      1.67574427
  C     -5.63020919      0.65596359      1.54033946
  H     -5.59380800     -0.20610544      2.21413776
  H     -6.45299612      1.29524677      1.87260885
  C     -5.92984733      0.16056015      0.12737863
  H     -6.88548015     -0.36584273      0.10855121
  H     -5.97785000      0.99178207     -0.57720235
  H     -5.14834310     -0.52746556     -0.20301927
  C     -4.59358034      3.23310524      1.03408971
  H     -4.89726354      3.08057361     -0.00614195
  H     -5.48719657      3.53456831      1.58929390
  C     -3.57648790      4.36979204      1.07137038
  H     -4.05416983      5.30695067      0.77963635
  H     -3.15155113      4.48831484      2.06795424
  H     -2.76463142      4.16320035      0.37379716
  C     -3.97699227      1.87759699      3.53171151
  H     -3.20311941      2.62513781      3.72954580
  H     -3.62949377      0.94870786      3.99650878
  C     -5.27451075      2.30801699      4.21535045
  H     -5.07434781      2.51292142      5.26874811
  H     -5.68093221      3.21329092      3.76457917
  H     -6.02820144      1.52283519      4.16049154
  P      0.33847304     -4.09713431      0.56687633
  C      1.98396994     -4.76480890     -0.03696005
  H      2.74379721     -4.01718268      0.20692906
  H      2.23920044     -5.67041521      0.52111493
  C      2.05913423     -5.07954972     -1.52941107
  H      3.09028368     -5.30468918     -1.80712764
  H      1.43709384     -5.93831451     -1.78273285
  H      1.72244267     -4.21996774     -2.11317973
  C     -0.80949148     -5.42033266     -0.14009632
  H     -0.82011408     -5.30677557     -1.22847566
  H     -0.43431472     -6.42500451      0.07297822
  C     -2.24227142     -5.28318099      0.37150748
  H     -2.89162537     -6.00113089     -0.13204819
  H     -2.29569648     -5.46150309      1.44601926
  H     -2.61872097     -4.27605450      0.17109849
  C      0.43848184     -4.63375898      2.36744783
  H     -0.42613391     -4.20049653      2.87984526
  H      1.32157233     -4.13805635      2.78398647
  C      0.50207215     -6.12556167      2.69395506
  H      0.65005939     -6.25126037      3.76816079
  H     -0.42442235     -6.62894423      2.41923289
  H      1.32841910     -6.61488023      2.17827988
  P      0.43233849     -0.09110585      4.31041570
  C      1.88245535      0.83883508      5.09064326
  H      1.68707931      1.91287405      5.00768038
  H      1.96759704      0.60335865      6.15497838
  C      3.21185325      0.52649845      4.40498089
  H      4.02121172      1.07923159      4.88475488
  H      3.43790776     -0.53934088      4.45901102
  H      3.17001222      0.81684519      3.35248330
  C      0.74547765     -1.77618936      5.08033378
  H      1.37454523     -2.32980805      4.37538436
  H      1.32536304     -1.66602066      6.00162505
  C     -0.50127301     -2.60703688      5.37956033
  H     -0.21462931     -3.63451040      5.60988932
  H     -1.04877471     -2.20313443      6.23110646
  H     -1.16798046     -2.61551828      4.51536850
  C     -0.96968367      0.57729179      5.35829190
  H     -1.84144817     -0.05918542      5.17799668
  H     -1.22161039      1.56358554      4.95432858
  C     -0.74204514      0.70629059      6.86452291
  H     -1.67865083      0.98812039      7.34914539
  H     -0.40176904     -0.23339799      7.29906499
  H     -0.00208915      1.47620343      7.08235383
  P      0.34535005      4.10750029     -1.26253296
  C     -0.73668909      4.80796293     -2.62635704
  H     -1.72619035      5.00181178     -2.19983122
  H     -0.33076147      5.76783817     -2.95912046
  C     -0.90323842      3.89979904     -3.84197788
  H     -1.46501812      4.41913630     -4.62040312
  H      0.06451255      3.60246923     -4.24593506
  H     -1.45263371      2.99970153     -3.56189116
  C      2.03408593      4.46644843     -2.00041157
  H      2.26116368      3.64678149     -2.68873194
  H      2.00813741      5.38607206     -2.59279667
  C      3.15557193      4.56747885     -0.96711368
  H      4.12609035      4.52053943     -1.46390217
  H      3.09736009      5.50581488     -0.41509472
  H      3.09011000      3.74592112     -0.24991649
  C      0.20138442      5.51888472     -0.01568097
  H      0.92600782      5.31816545      0.78038226
  H     -0.78595426      5.43838233      0.45029108
  C      0.39124747      6.95186700     -0.51447095
  H      0.36617088      7.63645798      0.33546927
  H      1.34780039      7.07435702     -1.02185367
  H     -0.40487032      7.23578053     -1.20236314
  P     -1.95319998     -1.39903621     -3.55883438
  C     -0.92923162     -1.44325688     -5.14156361
  H     -0.02786929     -2.02907940     -4.93608684
  H     -1.48093928     -1.95041009     -5.93785511
  C     -0.51537893     -0.06038766     -5.64083754
  H      0.13735189     -0.15766243     -6.50988833
  H     -1.38699777      0.52992740     -5.92659982
  H      0.02475158      0.48173778     -4.86082867
  C     -3.59198776     -0.86117930     -4.32594155
  H     -3.40944080      0.03457350     -4.92759033
  H     -3.96423028     -1.63302488     -5.00607725
  C     -4.66485203     -0.53541455     -3.29086295
  H     -5.59336646     -0.24626885     -3.78597741
  H     -4.86311483     -1.39590188     -2.65083417
  H     -4.33394166      0.29424488     -2.66122429
  C     -2.28939321     -3.22867044     -3.32966069
  H     -3.20705590     -3.31212748     -2.74055820
  H     -1.48520423     -3.63095083     -2.70661419
  C     -2.41942116     -4.10168122     -4.57735681
  H     -2.72473150     -5.10681392     -4.28063869
  H     -3.16833190     -3.70838100     -5.26521488
  H     -1.46785581     -4.17808371     -5.10324351
