#B3LYP/6-31+G(d) OPT FREQ

146, Energy =   -192.73161718 au

0 1
 Co     -0.17105412     -2.16793730      0.16234611
 Co      0.62321045      2.18599520     -0.12463077
 Co     -2.03506503      0.27698716     -0.31954880
 Co     -0.14512446      0.22007853      2.08848170
 Co      2.29114669     -0.36848378     -0.01777703
 Co      0.22181233     -0.02527657     -2.30875405
 Te      2.17168817      1.31739606     -1.77543287
 Te     -1.42442544      2.10634765      1.17381887
 Te     -1.09776241      1.97436971     -1.78930830
 Te      1.45746002     -1.60241602      1.90631698
 Te     -1.97330344     -1.29678979      1.53320797
 Te     -1.51117036     -1.64059014     -1.76823599
 Te      1.99411994      1.30746655      1.70667929
 Te      1.45248721     -1.99302332     -1.65159896
  P     -0.98337493      0.45696707      4.04601973
  C     -2.79233769      0.81342556      4.38678299
  H     -3.37436977      0.19235704      3.69895706
  H     -3.05111192      0.49303385      5.40025209
  C     -3.20951624      2.27291436      4.21824142
  H     -4.29717038      2.35385714      4.25555804
  H     -2.78868314      2.89457266      5.00887592
  H     -2.86543470      2.65577994      3.25471567
  C     -0.20100889      1.73053225      5.19413015
  H     -0.35844578      2.71755337      4.74745134
  H     -0.69901887      1.73612245      6.16787914
  C      1.30056899      1.52485278      5.38613014
  H      1.71447806      2.33322137      5.99116138
  H      1.50965163      0.57734744      5.88359249
  H      1.80721405      1.52324526      4.41733166
  C     -0.80438409     -1.12445424      5.05137908
  H      0.18893695     -1.53534851      4.84121943
  H     -1.52285872     -1.83431668      4.62749046
  C     -1.00420032     -1.06222594      6.56558573
  H     -0.94937312     -2.07174115      6.97716839
  H     -0.23092157     -0.46005280      7.04145030
  H     -1.97671427     -0.64310407      6.82393227
  P      1.55205876      4.03103865      0.43511470
  C      0.88750462      5.48120769     -0.58254714
  H     -0.16297272      5.63533273     -0.31544703
  H      1.42469013      6.40293277     -0.34318343
  C      0.98185460      5.22764948     -2.08625157
  H      0.57142749      6.07541872     -2.63719909
  H      2.01841145      5.08204684     -2.39324456
  H      0.41407662      4.33336283     -2.35370800
  C      3.38866687      4.33863769      0.18118165
  H      3.68082090      3.74493127     -0.69204416
  H      3.56118405      5.38847093     -0.07457370
  C      4.29683654      3.96218415      1.35025125
  H      5.34010737      3.98995294      1.03089243
  H      4.17287969      4.65363814      2.18377702
  H      4.06572712      2.95563995      1.70245507
  C      1.24790502      4.69069658      2.16288722
  H      1.82915839      4.07170131      2.85246258
  H      0.19472886      4.49728712      2.39511249
  C      1.55278028      6.16488636      2.42854490
  H      1.45985395      6.36717691      3.49712731
  H      2.56521303      6.42366001      2.11865787
  H      0.85255563      6.81051012      1.89885019
  P      4.33120445     -0.87438336     -0.41099881
  C      5.22585358     -0.47281328     -2.00700553
  H      5.29411250      0.61656234     -2.08673452
  H      6.24571664     -0.86705117     -1.97161378
  C      4.53268840     -1.00537142     -3.25744422
  H      5.15419783     -0.82803789     -4.13671545
  H      4.33567830     -2.07455932     -3.17636770
  H      3.58412032     -0.48601661     -3.39297101
  C      4.90170525     -2.65500224     -0.20607999
  H      4.26148933     -3.27063237     -0.84557694
  H      5.92731666     -2.78037440     -0.56586869
  C      4.80480106     -3.16929767      1.22936046
  H      4.94281508     -4.25154205      1.24937778
  H      5.56806574     -2.71318473      1.86044668
  H      3.82583425     -2.93472698      1.65486592
  C      5.47055990      0.02055740      0.79110734
  H      5.14336186     -0.23877151      1.80325880
  H      5.27360146      1.09154127      0.67654142
  C      6.97716724     -0.21532672      0.67690154
  H      7.48656154      0.30652971      1.48910691
  H      7.22124056     -1.27490930      0.74762456
  H      7.36362347      0.16741473     -0.26733959
  P     -0.27782202      0.53741006     -4.32115454
  C     -2.01812353      0.86771319     -4.94430680
  H     -2.44640976      1.65205366     -4.31412202
  H     -1.98097588      1.25833263     -5.96600589
  C     -2.94383770     -0.34782115     -4.92061823
  H     -3.97103208     -0.03595305     -5.11746529
  H     -2.65511794     -1.07467716     -5.68044955
  H     -2.90806686     -0.84012078     -3.94721367
  C      0.22389673     -0.72882500     -5.63230510
  H     -0.41367936     -1.60848604     -5.49912759
  H      0.03363205     -0.34618274     -6.63872290
  C      1.67900028     -1.17270150     -5.51271500
  H      1.90734535     -1.92585844     -6.26866378
  H      2.35933638     -0.33081426     -5.64586828
  H      1.85338203     -1.60903749     -4.52632641
  C      0.55801891      2.10309170     -4.93229253
  H      1.55955464      2.12783360     -4.48994901
  H      0.00803803      2.93826675     -4.48558148
  C      0.67296372      2.33148319     -6.43870234
  H      1.09326314      3.32227819     -6.62091648
  H      1.33153765      1.59470443     -6.89805999
  H     -0.30045298      2.28048239     -6.92693525
  P     -4.16916224      0.07906149     -0.41681763
  C     -5.05241354     -1.57552830     -0.41718549
  H     -4.58625701     -2.18649747      0.36234911
  H     -6.10044259     -1.43908608     -0.13433577
  C     -5.00245090     -2.33351161     -1.74177444
  H     -5.41363619     -3.33593968     -1.61149863
  H     -5.58028112     -1.81894423     -2.50996924
  H     -3.97015857     -2.42439563     -2.08688669
  C     -5.11943022      0.93281996     -1.80165471
  H     -4.82527510      0.46523438     -2.74607770
  H     -6.19606149      0.77529214     -1.69075828
  C     -4.82407517      2.42869248     -1.89318418
  H     -5.32620722      2.85748913     -2.76195825
  H     -5.16559132      2.95391536     -1.00066103
  H     -3.74848908      2.59447658     -1.99824310
  C     -4.97611729      0.83066671      1.10545884
  H     -4.45973266      1.77313629      1.31528374
  H     -4.73589949      0.15988082      1.93732923
  C     -6.48328680      1.08492531      1.09570660
  H     -6.79195946      1.44350560      2.07943536
  H     -6.75135684      1.84266332      0.36013612
  H     -7.04218548      0.17534469      0.87565405
  P     -0.09316225     -4.11234273      1.06636403
  C      1.45030346     -5.18036072      1.00622628
  H      2.23011968     -4.66306667      1.57216632
  H      1.27134638     -6.13755831      1.50489252
  C      1.95698487     -5.45155654     -0.40941240
  H      2.93307417     -5.93784412     -0.37001418
  H      1.26871157     -6.10136406     -0.95117416
  H      2.05513374     -4.51702292     -0.96746605
  C     -1.31097250     -5.33887667      0.30510425
  H     -1.02981211     -5.48079088     -0.74321208
  H     -1.23961237     -6.31646734      0.78957156
  C     -2.75392344     -4.84205783      0.35339730
  H     -3.41807367     -5.56122291     -0.12863921
  H     -3.08626281     -4.69619762      1.38174997
  H     -2.83566998     -3.88839140     -0.17085174
  C     -0.49686299     -4.27009748      2.89053332
  H     -1.35475722     -3.61882198      3.08589878
  H      0.34850453     -3.83657799      3.43435745
  C     -0.79475848     -5.65694172      3.45886035
  H     -0.93442640     -5.57783811      4.53860713
  H     -1.70632228     -6.07210803      3.02973559
  H      0.02482145     -6.35102422      3.27290671

