#B3LYP/6-31+G(d) OPT FREQ

146, Energy =   -192.68735460 au

0 1
 Co      0.91624873     -2.24912781      0.04260687
 Co     -0.22630871      2.15065888      0.15398359
 Co     -1.67933865     -0.89741343     -0.45921243
 Co      0.40153584     -0.04138387      2.15001856
 Co      1.33066794      0.29476935     -0.17538950
 Co      0.47325047     -0.06484934     -2.41063994
 Te      1.25378198      2.15075312     -1.74683493
 Te     -1.81508205      0.73291051      1.36130429
 Te     -1.51127337      1.23025815     -1.73657309
 Te      2.54494761     -1.03825911      1.42110804
 Te     -0.93346764     -2.01186686      1.60224370
 Te     -0.39462506     -2.29933811     -1.99417953
 Te      1.73389123      1.92732560      1.56898411
 Te      2.43649818     -1.32148116     -1.59543848
  P      1.14340362     -4.27591573      0.72029508
  C      2.60641026     -5.20834349     -0.02184808
  H      3.52846644     -4.74678283      0.34624091
  H      2.61328941     -6.25312401      0.30117388
  C      2.60780621     -5.16152525     -1.54973841
  H      3.48750406     -5.67558720     -1.94057797
  H      1.71635988     -5.64211035     -1.95506543
  H      2.62908363     -4.12553007     -1.89655193
  C     -0.19371977     -5.55053441      0.36195450
  H     -0.54892248     -5.35603251     -0.65574908
  H      0.22884077     -6.55995971      0.36295579
  C     -1.39282283     -5.51499479      1.30786735
  H     -2.19320692     -6.14636105      0.91818426
  H     -1.12147586     -5.87562530      2.30020575
  H     -1.76978582     -4.49562363      1.40984595
  C      1.47428928     -4.55977252      2.54319618
  H      0.58035190     -4.23663002      3.08617344
  H      2.27291219     -3.86723207      2.83054050
  C      1.85517591     -5.96896701      2.99772945
  H      1.90967865     -5.99586791      4.08759566
  H      1.11846172     -6.70429186      2.67484044
  H      2.82880048     -6.25770463      2.60214294
  P      3.60185702      2.65167224     -0.57267163
  C      4.52282270      2.91572646     -2.21135061
  H      3.96624254      3.65822298     -2.79128091
  H      5.53416235      3.30276126     -2.06063779
  C      4.60802416      1.62373815     -3.02457585
  H      5.09512199      1.81144196     -3.98281798
  H      5.17628557      0.86140464     -2.49017097
  H      3.60928852      1.22867541     -3.21481222
  C      4.96213953      1.66365254      0.30070837
  H      4.61666816      0.62142019      0.29324837
  H      5.88640853      1.70497187     -0.28059285
  C      5.25668262      2.04950039      1.74623189
  H      5.92924535      1.31314815      2.18985405
  H      5.72729619      3.03041864      1.80933823
  H      4.33269214      2.06526466      2.32636507
  C      3.71760266      4.38481816      0.12337474
  H      3.57013351      4.30718021      1.20257387
  H      2.85293326      4.92915725     -0.26861026
  C      4.98222910      5.19650838     -0.15880771
  H      4.94514198      6.12703353      0.41062371
  H      5.87818968      4.65060054      0.13595960
  H      5.05989229      5.44895396     -1.21579051
  P     -1.11648870      4.02296681      0.80640226
  C     -2.45898087      4.75870134     -0.28648549
  H     -3.31744276      4.07910744     -0.27908866
  H     -2.80292212      5.72071586      0.10394187
  C     -1.99443017      4.94640859     -1.73108661
  H     -2.80176442      5.36742896     -2.33271273
  H     -1.13707365      5.61883717     -1.78222942
  H     -1.70851097      3.98414053     -2.16203344
  C     -0.06165677      5.56828319      1.03228622
  H      0.54852982      5.68241559      0.13007317
  H     -0.68243739      6.46577306      1.10963078
  C      0.86826226      5.48854614      2.24243532
  H      1.60293254      6.29462483      2.20705516
  H      0.30820062      5.57255021      3.17383331
  H      1.40001362      4.53371681      2.25025619
  C     -2.03043519      3.98384370      2.44423677
  H     -1.31629066      3.65886002      3.20872489
  H     -2.76987607      3.17972325      2.36813922
  C     -2.73029589      5.25543053      2.92438771
  H     -3.17767912      5.07228164      3.90310687
  H     -2.03057744      6.08515322      3.02112123
  H     -3.52408753      5.54997967      2.23814733
  P      0.31994357     -0.19813155     -4.55515646
  C     -1.35150798      0.01913686     -5.38032572
  H     -1.66680470      1.05781308     -5.23720602
  H     -1.28110709     -0.15649368     -6.45765371
  C     -2.42276640     -0.89975395     -4.79666761
  H     -3.38054326     -0.72163685     -5.28841527
  H     -2.15346951     -1.94797509     -4.92768243
  H     -2.53841890     -0.70519819     -3.72989983
  C      0.86131531     -1.77985631     -5.40602665
  H      0.28369380     -2.59527697     -4.95811218
  H      0.61972266     -1.75940614     -6.47287364
  C      2.34809086     -2.08339106     -5.22673987
  H      2.57773000     -3.07571297     -5.61829503
  H      2.96350489     -1.35271252     -5.75267546
  H      2.61631018     -2.05818255     -4.16682006
  C      1.30396230      1.09464138     -5.50420624
  H      2.35133878      0.99009292     -5.20256659
  H      0.98080324      2.07420601     -5.13507534
  C      1.23076790      1.09013382     -7.03167641
  H      1.88269373      1.87108512     -7.42747886
  H      1.55840755      0.13438805     -7.44011912
  H      0.21636802      1.28650965     -7.37814385
  P      0.30404245     -0.17850428      4.30352062
  C     -1.29460620     -0.77966001      5.08527659
  H     -1.54957912     -1.73238495      4.60869988
  H     -1.15906881     -0.97473655      6.15306328
  C     -2.46578789      0.18545022      4.90642286
  H     -3.38518313     -0.26957435      5.27893783
  H     -2.29379556      1.11485909      5.45034772
  H     -2.60191197      0.42681700      3.84858729
  C      0.63058906      1.30670877      5.40885533
  H     -0.08523211      2.08702509      5.12937752
  H      0.44306684      1.06340287      6.45881587
  C      2.04130003      1.87198159      5.25607944
  H      2.14478184      2.78715796      5.84135275
  H      2.79183848      1.15676209      5.59394955
  H      2.23763280      2.10746050      4.20640039
  C      1.48513533     -1.45397783      5.01618938
  H      2.47468101     -1.24894078      4.59398195
  H      1.17880157     -2.42245169      4.60596737
  C      1.60769598     -1.58295964      6.53496021
  H      2.30940009     -2.38458096      6.77282919
  H      1.98130639     -0.66169570      6.98091970
  H      0.64838212     -1.82506754      6.99205736
  P     -3.65004642     -1.77790065     -0.70573005
  C     -3.95754620     -3.57065671     -1.18021231
  H     -3.42139570     -4.20161936     -0.46429777
  H     -5.02012356     -3.81469928     -1.08995940
  C     -3.48842881     -3.92266766     -2.58960389
  H     -3.59000888     -4.99524897     -2.76280166
  H     -4.07273052     -3.39125718     -3.34150940
  H     -2.43630435     -3.64951843     -2.71261317
  C     -4.95487890     -0.96799808     -1.79097619
  H     -4.64944734     -1.08303068     -2.83505768
  H     -5.91679294     -1.47850932     -1.68761300
  C     -5.13035524      0.52105220     -1.49872819
  H     -5.85973070      0.95507515     -2.18466508
  H     -5.47465885      0.68366388     -0.47672387
  H     -4.17902959      1.04461944     -1.62901809
  C     -4.51969333     -1.77062611      0.96284503
  H     -4.38794391     -0.76927851      1.38795515
  H     -3.94748212     -2.44515999      1.60967227
  C     -5.99922133     -2.14749241      1.03482637
  H     -6.32090936     -2.13842268      2.07797279
  H     -6.61543874     -1.43652050      0.48502055
  H     -6.17758880     -3.14516523      0.63387547

