146
Energy =   -192.73186260 au
 Co      0.63563077     -2.13125293      0.14036482
 Co     -0.39486057      2.02693266     -0.57835980
 Co     -2.05112881     -0.71564777     -0.11776649
 Co     -0.16327031      0.48991569      2.00530794
 Co      2.26313410      0.42996377      0.04679825
 Co      0.22115199     -0.36768972     -2.33208839
 Te      1.58780055      1.61430896     -1.94122835
 Te     -2.17836334      1.44428490      0.96382351
 Te     -1.91858960      0.77218127     -2.00420531
 Te      1.77302678     -1.01305837      1.96389053
 Te     -1.05149569     -1.78995620      1.84625335
 Te     -1.03524386     -2.31250161     -1.63215112
 Te      1.26367058      2.29694427      1.18555133
 Te      2.26386897     -1.38209218     -1.55522600
  P     -0.09986296      0.20888615     -4.36941408
  C     -1.55723755     -0.49494436     -5.32966887
  H     -2.46589257     -0.05964290     -4.90206676
  H     -1.50603327     -0.18152680     -6.37680213
  C     -1.66846049     -2.01675073     -5.27460561
  H     -2.58492991     -2.34247115     -5.76943288
  H     -0.82019206     -2.48937984     -5.77122171
  H     -1.69342882     -2.35911457     -4.23696337
  C      1.28610465     -0.33744583     -5.53305040
  H      1.29720842     -1.43213997     -5.54137805
  H      1.08159424     -0.01495160     -6.55738141
  C      2.66594794      0.15495304     -5.10405366
  H      3.41995456     -0.16138783     -5.82677722
  H      2.68883872      1.24266418     -5.02734538
  H      2.92550185     -0.26063690     -4.12792911
  C     -0.32857871      2.01108958     -4.83615136
  H      0.33068688      2.60717026     -4.19811094
  H     -1.35282186      2.27730642     -4.55854592
  C     -0.09471114      2.41262482     -6.29177901
  H     -0.37382181      3.45989689     -6.42218169
  H      0.95465368      2.30595039     -6.56575247
  H     -0.69656735      1.81331570     -6.97522528
  P     -0.54141532      0.99051828      4.07446395
  C     -2.28241821      0.97970950      4.78261133
  H     -2.75602895      0.03941870      4.48272525
  H     -2.24841771      0.98554944      5.87590125
  C     -3.15455364      2.14317868      4.31577311
  H     -4.18166361      1.99992689      4.65532966
  H     -2.78689596      3.09118287      4.70951313
  H     -3.15538350      2.19898130      3.22389776
  C      0.06811854      2.57874630      4.87204697
  H     -0.41771842      3.41578339      4.36024033
  H     -0.23982243      2.62479879      5.92079991
  C      1.57968262      2.76927992      4.77264035
  H      1.86781414      3.72397233      5.21553976
  H      2.11553262      1.97085261      5.28670222
  H      1.88219399      2.77037108      3.72236987
  C      0.23070511     -0.31571051      5.18468717
  H      1.26602092     -0.44777075      4.85218219
  H     -0.27944598     -1.25700137      4.94975471
  C      0.21813488     -0.10693668      6.69895504
  H      0.68204557     -0.96810732      7.18342830
  H      0.78000616      0.78340008      6.97974288
  H     -0.79806594     -0.01061225      7.08086270
  P      4.23833337      0.45081072      0.86976415
  C      5.39149996      1.58379560     -0.11044306
  H      5.05984183      2.61722174      0.03348743
  H      6.41561671      1.51374610      0.26622267
  C      5.39053307      1.26932423     -1.60570157
  H      6.05094929      1.95847330     -2.13447638
  H      5.73212809      0.24981609     -1.79006047
  H      4.38185483      1.37471560     -2.01312438
  C      5.30974785     -1.09465458      0.87259040
  H      5.03603770     -1.66452102     -0.02202308
  H      6.36378090     -0.82135331      0.76474231
  C      5.15791888     -2.00258210      2.09175570
  H      5.66174790     -2.95343965      1.90997768
  H      5.59420238     -1.54535219      2.97983449
  H      4.10321440     -2.19854632      2.29174087
  C      4.50689747      1.14061212      2.58952201
  H      4.05372256      0.43896251      3.29638334
  H      3.91837103      2.06164271      2.65365073
  C      5.94118610      1.44230115      3.02395964
  H      5.94755881      1.72197489      4.07902699
  H      6.58836886      0.57474471      2.89687890
  H      6.35686706      2.27093388      2.45094645
  P     -0.78701346      4.11996134     -0.38100534
  C     -2.41199699      4.75723745     -1.09969451
  H     -3.22782191      4.34640941     -0.49612882
  H     -2.45998006      5.84671140     -1.02039293
  C     -2.63384855      4.36347668     -2.55798695
  H     -3.60624284      4.72227682     -2.89912043
  H     -1.86201841      4.78854826     -3.20103438
  H     -2.61008232      3.27591948     -2.66286920
  C      0.36643323      5.38436054     -1.16676734
  H      0.22335980      5.34371868     -2.25126925
  H      0.08733482      6.39248279     -0.84569350
  C      1.84450513      5.15086286     -0.86664994
  H      2.44894232      5.93867359     -1.31946908
  H      2.03000716      5.13846883      0.20786874
  H      2.16214298      4.19004747     -1.27860001
  C     -0.91985731      4.82144456      1.35428583
  H      0.09917888      4.89564454      1.74432950
  H     -1.42826188      4.07044420      1.96713426
  C     -1.62416311      6.16435553      1.54453261
  H     -1.51295855      6.48218448      2.58290814
  H     -1.19442038      6.93605595      0.90542676
  H     -2.68921545      6.08418424      1.32762161
  P      1.32043284     -4.04529020     -0.55246334
  C      1.90695115     -4.64036766     -2.23130807
  H      2.88286406     -4.18128162     -2.41250187
  H      2.05778286     -5.72328354     -2.18141558
  C      1.00506076     -4.33810362     -3.42377200
  H      1.39605139     -4.83067537     -4.31622585
  H     -0.01132568     -4.68810987     -3.24603680
  H      0.96937099     -3.26454551     -3.60707112
  C      0.16156791     -5.48519367     -0.15181025
  H     -0.72412667     -5.36659702     -0.78341096
  H      0.62031505     -6.44191473     -0.41652636
  C     -0.27506274     -5.51901658      1.31065086
  H     -1.04970484     -6.27383924      1.45507329
  H      0.56602121     -5.75616195      1.96340693
  H     -0.67729407     -4.54767401      1.61132311
  C      2.85895276     -4.52225101      0.43604048
  H      2.65791461     -4.27759045      1.48424308
  H      3.65414557     -3.84335030      0.11071752
  C      3.37491114     -5.95884026      0.35504370
  H      4.26053397     -6.05865932      0.98560106
  H      2.62683765     -6.66892249      0.70658785
  H      3.65320622     -6.22306458     -0.66490473
  P     -3.82539756     -1.67599797      0.61579346
  C     -3.99807795     -3.53417044      0.80818741
  H     -3.21066435     -3.86223808      1.49343557
  H     -4.95621615     -3.77804227      1.27705853
  C     -3.87903201     -4.31773297     -0.49809009
  H     -3.81971761     -5.38658603     -0.28614521
  H     -4.74275582     -4.13976292     -1.13958515
  H     -2.97954473     -4.01947234     -1.04200482
  C     -5.33528164     -1.34116938     -0.46819486
  H     -5.15658213     -1.80624037     -1.44277968
  H     -6.23281247     -1.80652331     -0.05188666
  C     -5.57772901      0.15173195     -0.68392155
  H     -6.42999972      0.30244162     -1.34846595
  H     -5.78008469      0.65793323      0.26073006
  H     -4.69767724      0.61338657     -1.13873777
  C     -4.44552867     -1.13874476      2.30248611
  H     -4.28934962     -0.05778223      2.37275293
  H     -3.77485726     -1.59594090      3.03734002
  C     -5.89144355     -1.45050176      2.68689781
  H     -6.05911738     -1.15090105      3.72306315
  H     -6.59284969     -0.90209766      2.05864666
  H     -6.10813933     -2.51541779      2.60212596
