#B3LYP/6-31+G(d) OPT FREQ

146, Energy =   -192.73163582 au

0 1
 Co     -0.30029825     -2.14903052      0.14466606
 Co      0.75867510      2.15044593     -0.13835108
 Co     -2.00555858      0.40186693     -0.36972108
 Co     -0.16150110      0.23945889      2.06722804
 Co      2.26610405     -0.49836658     -0.00154126
 Co      0.25783644     -0.03861393     -2.32581053
 Te      2.27628715      1.18762900     -1.76473207
 Te     -1.31017648      2.19721446      1.12874792
 Te     -0.94790565      2.03606595     -1.82784197
 Te      1.33098006     -1.67579109      1.91180240
 Te     -2.06735984     -1.16667602      1.48724860
 Te     -1.57559033     -1.54739194     -1.80739363
 Te      2.04531452      1.19563143      1.71682155
 Te      1.35774920     -2.07490033     -1.64574950
  P      4.27786706     -1.12231692     -0.37044391
  C      5.21223268     -0.78656271     -1.95889680
  H      5.34642721      0.29624964     -2.04415168
  H      6.20623394     -1.24078724     -1.90932290
  C      4.50304609     -1.28456847     -3.21449770
  H      5.14232237     -1.14550872     -4.08791221
  H      4.24585888     -2.34074238     -3.13181599
  H      3.58637357     -0.71375034     -3.36163497
  C      4.74310530     -2.93062484     -0.14325090
  H      4.08050263     -3.51427563     -0.78986549
  H      5.76617611     -3.11652380     -0.48348155
  C      4.59159683     -3.42665156      1.29385502
  H      4.67066942     -4.51450887      1.32497776
  H      5.36580159     -3.00644031      1.93641827
  H      3.61877536     -3.13609846      1.69835081
  C      5.45387717     -0.28222093      0.83604500
  H      5.09353980     -0.50015189      1.84670129
  H      5.32995925      0.79698368      0.69855142
  C      6.94338571     -0.61831773      0.75340139
  H      7.47380398     -0.10580303      1.55810040
  H      7.11667281     -1.68881327      0.85983812
  H      7.36793065     -0.29087828     -0.19529658
  P     -4.14594936      0.32397626     -0.49082125
  C     -5.12294876     -1.27692727     -0.50842016
  H     -4.70279701     -1.91641520      0.27435768
  H     -6.16479150     -1.08087097     -0.23809028
  C     -5.10054090     -2.03225330     -1.83530580
  H     -5.57042007     -3.00968788     -1.71395592
  H     -5.63820878     -1.48277422     -2.60846038
  H     -4.07105901     -2.18154741     -2.16819370
  C     -5.02709189      1.23388814     -1.88596958
  H     -4.74905311      0.75077143     -2.82745414
  H     -6.11244724      1.13999298     -1.78898383
  C     -4.64286373      2.70979414     -1.97118165
  H     -5.10713024      3.16813014     -2.84592083
  H     -4.96478490      3.25350462     -1.08244725
  H     -3.55805872      2.81194034     -2.06176578
  C     -4.92759038      1.11874802      1.02269392
  H     -4.36308906      2.03199674      1.23792651
  H     -4.73285881      0.43647736      1.85710143
  C     -6.41855239      1.45418907      0.99681502
  H     -6.71583068      1.83802969      1.97449502
  H     -6.63907854      2.21835744      0.25218943
  H     -7.02376926      0.57399684      0.77983831
  P     -1.00014712      0.52306189      4.01853902
  C     -2.78680954      0.99234030      4.33956015
  H     -3.39927586      0.40646388      3.64724950
  H     -3.07608534      0.69295790      5.35121568
  C     -3.10862142      2.47464519      4.16095652
  H     -4.18944695      2.62420607      4.17977116
  H     -2.66252935      3.07099387      4.95724021
  H     -2.72529204      2.83211764      3.20238650
  C     -0.15257745      1.74255006      5.17894606
  H     -0.24355701      2.73837850      4.73329417
  H     -0.65995659      1.77719257      6.14726031
  C      1.33119497      1.44384245      5.38671073
  H      1.78973668      2.22872427      5.99048558
  H      1.47537840      0.48856806      5.89223488
  H      1.84575732      1.40381282      4.42289566
  C     -0.93197484     -1.06893262      5.02011272
  H      0.03551890     -1.54114062      4.81837524
  H     -1.68948398     -1.73080544      4.58661215
  C     -1.14279663     -0.99858133      6.53245492
  H     -1.15577242     -2.01076530      6.94094374
  H     -0.33790929     -0.44780201      7.01806863
  H     -2.08953298     -0.51972082      6.78259497
  P      1.78738437      3.93931017      0.42974238
  C      1.22742700      5.42154154     -0.60450440
  H      0.18380604      5.63959572     -0.35578758
  H      1.81479334      6.31077399     -0.36011841
  C      1.33126752      5.15505361     -2.10538277
  H      0.98012664      6.02235544     -2.66679105
  H      2.36234504      4.94742863     -2.39462158
  H      0.71654084      4.29409727     -2.37826779
  C      3.64270116      4.14069085      0.20748866
  H      3.91406648      3.53941405     -0.66721995
  H      3.87993684      5.18115395     -0.03448702
  C      4.50867755      3.70128534      1.38649662
  H      5.55706564      3.67368248      1.08434920
  H      4.40965719      4.38956251      2.22597083
  H      4.21545745      2.70584407      1.72354947
  C      1.49179378      4.62186933      2.15008847
  H      2.01827783      3.96854202      2.85196728
  H      0.42389727      4.49656190      2.36095203
  C      1.88474193      6.07399061      2.42107504
  H      1.76987603      6.28748626      3.48536998
  H      2.92195541      6.26321706      2.14462689
  H      1.24709446      6.76205085      1.86636982
  P     -0.17999640      0.54803911     -4.34634511
  C     -1.88817244      0.98777148     -4.99036335
  H     -2.27307709      1.79814462     -4.36518901
  H     -1.81541382      1.37410824     -6.01168979
  C     -2.88871789     -0.16718068     -4.97686118
  H     -3.89337168      0.20966193     -5.17629969
  H     -2.64280110     -0.90682999     -5.73939701
  H     -2.88855614     -0.66568548     -4.00596622
  C      0.25495823     -0.75045838     -5.64967442
  H     -0.43973317     -1.58693054     -5.52433919
  H      0.10278246     -0.35773198     -6.65871315
  C      1.67687601     -1.28687269     -5.51129615
  H      1.86699453     -2.05182598     -6.26599017
  H      2.41138094     -0.48997793     -5.63316766
  H      1.80952359     -1.73503595     -4.52372470
  C      0.76535973      2.05294615     -4.95043515
  H      1.76832231      1.99998469     -4.51400077
  H      0.28123864      2.92248642     -4.49335210
  C      0.88880984      2.28632301     -6.45545153
  H      1.38264216      3.24375915     -6.63124869
  H      1.48603888      1.50589401     -6.92621678
  H     -0.08833851      2.31505971     -6.93773926
  P     -0.34345709     -4.09434323      1.05001635
  C      1.13986556     -5.24551189      1.02097167
  H      1.93634709     -4.76935220      1.59960645
  H      0.89964294     -6.18929528      1.51950537
  C      1.65684953     -5.55017415     -0.38406186
  H      2.60396787     -6.08891295     -0.32478275
  H      0.94418592     -6.16380239     -0.93635044
  H      1.81618948     -4.62489228     -0.94335070
  C     -1.61197200     -5.25417011      0.26724266
  H     -1.31848065     -5.41446196     -0.77502588
  H     -1.60429317     -6.23278987      0.75481317
  C     -3.02588153     -4.67809070      0.28598533
  H     -3.71928006     -5.36141525     -0.20689732
  H     -3.36952389     -4.51025469      1.30725872
  H     -3.04466426     -3.72338682     -0.24251623
  C     -0.78788066     -4.22649194      2.86685888
  H     -1.60600921     -3.52232687      3.04880899
  H      0.07397144     -3.84765653      3.42547418
  C     -1.18260153     -5.59200664      3.42789880
  H     -1.32938052     -5.50628105      4.50619726
  H     -2.11440445     -5.94539407      2.98707832
  H     -0.40833451     -6.33812582      3.24934872

