#B3LYP/6-31+G(d) OPT FREQ

146, Energy =   -192.73520693 au

0 1
 Co     -0.22192612     -2.07609583      0.23226072
 Co      0.87616921      2.24818948     -0.12121986
 Co     -1.85816470      0.49247081     -0.54324851
 Co     -0.21702454      0.40061099      2.03550857
 Co      2.35782201     -0.39809598      0.17087037
 Co      0.55055725     -0.12004717     -2.26275565
 Te      2.45576838      1.24637517     -1.65768704
 Te     -1.28920320      2.32780086      0.95272717
 Te     -0.61333070      2.01151830     -1.99147272
 Te      1.31464121     -1.50228957      2.06211319
 Te     -2.08954740     -1.01813446      1.35099631
 Te     -1.36952388     -1.54813120     -1.80822257
 Te      2.03354165      1.32429043      1.83617879
 Te      1.59659732     -2.12161600     -1.38128585
  P     -0.29310179     -3.95808580      1.26236986
  C      1.21921576     -5.05075984      1.47379631
  H      1.94139613     -4.49095934      2.07587817
  H      0.96049852     -5.95386494      2.03469536
  C      1.88129080     -5.46279659      0.16003630
  H      2.82928181     -5.96405434      0.36226430
  H      1.24197917     -6.14523019     -0.40119317
  H      2.07645306     -4.58623466     -0.46236904
  C     -1.44722677     -5.20144270      0.43130562
  H     -1.03252518     -5.43623592     -0.55406796
  H     -1.48908774     -6.13930846      0.99161681
  C     -2.85845970     -4.64831870      0.24126613
  H     -3.48561755     -5.38099896     -0.26914232
  H     -3.31774858     -4.40496053      1.20011764
  H     -2.82584004     -3.73883367     -0.36284767
  C     -0.92486886     -3.98163729      3.02748622
  H     -1.77268521     -3.29074565      3.07343176
  H     -0.13532675     -3.54291147      3.64592836
  C     -1.34836679     -5.31724737      3.63742645
  H     -1.60645856     -5.16469613      4.68706403
  H     -2.22322246     -5.72270328      3.12973232
  H     -0.54582482     -6.05321971      3.58907776
  P     -1.20393572      0.75561338      3.90659117
  C     -3.01175341      1.22474570      4.07329025
  H     -3.56594520      0.61882545      3.35002354
  H     -3.37955522      0.94895703      5.06595098
  C     -3.32247951      2.70080923      3.83333986
  H     -4.40138918      2.84441575      3.75433240
  H     -2.95051847      3.31742307      4.65193652
  H     -2.85782037      3.03914993      2.90428535
  C     -0.45469010      2.03197584      5.07322071
  H     -0.51486537      3.00606461      4.57719537
  H     -1.03832906      2.10575527      5.99533817
  C      1.00896660      1.75683645      5.41349360
  H      1.41019367      2.56987757      6.02086712
  H      1.11804781      0.82395076      5.96725365
  H      1.60171324      1.68379531      4.49798222
  C     -1.20574817     -0.78867953      4.98308031
  H     -0.22589243     -1.26555833      4.87319042
  H     -1.93019750     -1.47245877      4.52780870
  C     -1.52453859     -0.65122310      6.47181748
  H     -1.56939285     -1.64426203      6.92282724
  H     -0.75519210     -0.07895134      6.98907272
  H     -2.48552046     -0.16226166      6.63184975
  P      4.32642034     -0.84395754     -0.55966781
  C      5.06901691     -0.75908785     -2.27854557
  H      5.16395287      0.29914846     -2.53741557
  H      6.07778545     -1.18229950     -2.24558315
  C      4.29045145     -1.45681080     -3.38911675
  H      4.86432093     -1.42909797     -4.31739372
  H      4.08694509     -2.49616349     -3.13281535
  H      3.33909249     -0.95093258     -3.55327547
  C      5.01193318     -2.53500940     -0.06090523
  H      4.44667900     -3.28445482     -0.62362695
  H      6.06087480     -2.63657547     -0.35308583
  C      4.86999687     -2.82732531      1.43081295
  H      5.13328084     -3.86580891      1.63807540
  H      5.52276395     -2.18036132      2.01822491
  H      3.83987196     -2.65903511      1.75684651
  C      5.53693996      0.31847427      0.30670512
  H      5.26831450      0.33349890      1.36818449
  H      5.32566328      1.32268740     -0.07577464
  C      7.03579211      0.04677769      0.18008209
  H      7.58742262      0.80467803      0.73962648
  H      7.29671676     -0.93053855      0.58531646
  H      7.35939220      0.08989339     -0.85963366
  P      1.72917314      4.08705657      0.57152148
  C      1.12386217      5.55704563     -0.45220322
  H      0.05663794      5.69636974     -0.25152971
  H      1.63547255      6.47652657     -0.15502200
  C      1.32030424      5.34305277     -1.95242485
  H      0.92748616      6.19611363     -2.50801055
  H      2.37764914      5.22779662     -2.19467333
  H      0.79122106      4.44411661     -2.27859970
  C      3.57673291      4.41646511      0.44858140
  H      3.92069849      3.92098413     -0.46582028
  H      3.76003030      5.48739525      0.31853956
  C      4.41767952      3.91068845      1.61894506
  H      5.47819209      3.98393561      1.37193876
  H      4.23087333      4.49714571      2.51867080
  H      4.18067634      2.86808533      1.83666013
  C      1.31405585      4.70398064      2.29029239
  H      1.82879353      4.05206483      3.00187730
  H      0.24222576      4.53254419      2.43879185
  C      1.63497027      6.16099246      2.62252866
  H      1.44701063      6.33955852      3.68282853
  H      2.67964509      6.39442123      2.41701872
  H      1.00770862      6.84188109      2.04753494
  P     -3.98470598      0.56619377     -0.83246733
  C     -5.00431617     -0.99764859     -1.02517396
  H     -4.68165350     -1.68895231     -0.23950079
  H     -6.06191168     -0.78074314     -0.84834977
  C     -4.86920940     -1.68967456     -2.37962910
  H     -5.39834722     -2.64393737     -2.36334663
  H     -5.28567961     -1.07547526     -3.17841851
  H     -3.81666274     -1.88219883     -2.60056928
  C     -4.72173893      1.59782510     -2.22501517
  H     -4.42794027      1.14494419     -3.17656230
  H     -5.81459333      1.58015409     -2.19020703
  C     -4.22642129      3.04272247     -2.20639507
  H     -4.62214779      3.58707674     -3.06531454
  H     -4.53952026      3.55484855     -1.29590464
  H     -3.13426972      3.06548338     -2.25536168
  C     -4.86297905      1.29204243      0.66051173
  H     -4.28645145      2.16543874      0.98148738
  H     -4.76457372      0.54999424      1.46012147
  C     -6.33265905      1.69228375      0.53408749
  H     -6.70458594      2.00034074      1.51302055
  H     -6.45545147      2.52915083     -0.15286258
  H     -6.94679830      0.86262535      0.18383023
  P     -0.12145736     -0.09688984     -4.29816920
  C     -0.16455569     -1.74165410     -5.21811485
  H     -1.00384477     -2.31796735     -4.81641060
  H     -0.35308382     -1.57711360     -6.28266855
  C      1.11096976     -2.56746110     -5.07105584
  H      0.99014702     -3.53212215     -5.56680358
  H      1.96227995     -2.05314980     -5.51872329
  H      1.33160727     -2.74500026     -4.01572347
  C      0.90875196      0.88073291     -5.54273805
  H      1.84770878      0.34158340     -5.70332309
  H      0.39558978      0.92366898     -6.50799066
  C      1.23693888      2.29798883     -5.08046492
  H      1.81860836      2.81840687     -5.84315158
  H      0.32675823      2.86662641     -4.88568299
  H      1.82326805      2.26597249     -4.15871899
  C     -1.83236713      0.54022954     -4.71975060
  H     -1.79958170      1.62911139     -4.62541712
  H     -2.51066269      0.18421211     -3.93892763
  C     -2.42692231      0.17965879     -6.08078474
  H     -3.36844726      0.71616765     -6.21230631
  H     -1.75952945      0.45987692     -6.89605875
  H     -2.63346928     -0.88816751     -6.14949060

