146
Energy =   -192.73446533 au
 Co     -0.65154248     -2.19417914      0.11768094
 Co      0.64795501      1.93457445     -0.32010744
 Co     -2.10061768      0.49816469     -0.22525191
 Co     -0.12347989      0.32752880      2.15443880
 Co      2.07613662     -0.91541450      0.44074355
 Co      0.32205894     -0.43148793     -2.18215438
 Te      2.39388771      0.61416050     -1.39852051
 Te     -1.24379368      2.26328558      1.19409456
 Te     -1.02650183      1.59457741     -2.07248068
 Te      0.65768123     -1.98531787      2.14199593
 Te     -2.08361746     -1.02962760      1.69889105
 Te     -1.89158313     -1.33523526     -1.80435322
 Te      2.07326647      1.24541418      1.52328481
 Te      1.33980882     -2.43558756     -1.30269838
  P      0.39684452      1.06407850      4.10451789
  C     -0.94529713      0.71339198      5.39168677
  H     -0.98006859     -0.36612925      5.57027825
  H     -0.70650557      1.19521536      6.34367080
  C     -2.32398488      1.17870142      4.92892684
  H     -3.07051575      0.97802695      5.69899710
  H     -2.32439730      2.24810783      4.71316346
  H     -2.60881710      0.64320188      4.02112638
  C      0.65286740      2.89010107      4.46954202
  H      0.03318053      3.44003386      3.75349963
  H      0.27242725      3.13138642      5.46658044
  C      2.09185142      3.39166344      4.35814165
  H      2.10336984      4.48288832      4.35189419
  H      2.69564767      3.04656328      5.19732322
  H      2.54890231      3.03217702      3.43456777
  C      1.85318544      0.26937290      4.97604296
  H      2.76247505      0.62746383      4.48446123
  H      1.79426008     -0.80419186      4.76736475
  C      1.98451892      0.46817213      6.48618565
  H      2.93854669      0.05810999      6.82271299
  H      1.95227802      1.52376038      6.75516619
  H      1.18662517     -0.04897200      7.01870196
  P      0.83829196      0.21845839     -4.15999341
  C     -0.55402503      0.38594144     -5.41841509
  H     -1.14218098      1.26593887     -5.14047368
  H     -0.14343160      0.56144214     -6.41667968
  C     -1.48286180     -0.82419083     -5.48066553
  H     -2.30124655     -0.63074670     -6.17621863
  H     -0.94567376     -1.71165425     -5.81765921
  H     -1.90701857     -1.03188471     -4.49542325
  C      1.97869430     -0.89379995     -5.17593156
  H      1.41392290     -1.78551567     -5.46554540
  H      2.27701765     -0.39011769     -6.10004763
  C      3.22511513     -1.33621519     -4.41434926
  H      3.85339318     -1.96324550     -5.04911797
  H      3.80895313     -0.47535367     -4.08596181
  H      2.93863901     -1.91325104     -3.53162895
  C      1.69043562      1.86866652     -4.40908914
  H      2.72224355      1.74840473     -4.06778939
  H      1.22218053      2.58207437     -3.72500426
  C      1.70101122      2.47538358     -5.81158547
  H      2.32537108      3.37076016     -5.80872114
  H      2.10832858      1.77992717     -6.54542118
  H      0.69741804      2.76342262     -6.12293363
  P     -1.10464591     -4.12440309     -0.70798934
  C     -0.68294894     -4.89540676     -2.36420618
  H      0.39649718     -5.07067197     -2.37208072
  H     -1.17502382     -5.87089210     -2.42882311
  C     -1.04707693     -4.09153907     -3.60815496
  H     -0.85676749     -4.68800929     -4.50251592
  H     -2.09763820     -3.80278681     -3.59581226
  H     -0.44265518     -3.18622326     -3.65948646
  C     -2.91607886     -4.65716697     -0.61834264
  H     -3.46697214     -4.03530314     -1.33052567
  H     -3.03720328     -5.69613380     -0.93737264
  C     -3.52585175     -4.47744449      0.76977764
  H     -4.60281569     -4.64921549      0.73384337
  H     -3.08683049     -5.17736902      1.48183508
  H     -3.34820560     -3.46270651      1.13622733
  C     -0.28154092     -5.42522779      0.38859504
  H     -0.45592929     -5.13137891      1.42881140
  H      0.79596156     -5.32821087      0.22014022
  C     -0.67547453     -6.89215382      0.21720601
  H     -0.09815631     -7.50272393      0.91417624
  H     -1.73332153     -7.04547028      0.42853614
  H     -0.46821663     -7.24335662     -0.79331394
  P     -4.17919093      0.68236092      0.26854318
  C     -5.36568432     -0.77229405      0.21690953
  H     -4.99040928     -1.52001034      0.92217926
  H     -6.35475169     -0.46457728      0.56975791
  C     -5.51443056     -1.41830412     -1.15945313
  H     -6.08061486     -2.34739909     -1.07494299
  H     -6.03974048     -0.75487822     -1.84731619
  H     -4.53342961     -1.64587615     -1.58324284
  C     -5.10334788      1.86066643     -0.88202807
  H     -5.09854607      1.42108425     -1.88443383
  H     -6.15004908      1.96568768     -0.58448413
  C     -4.44415813      3.23644958     -0.95793979
  H     -4.99204504      3.88048795     -1.64762486
  H     -4.41879189      3.71661625      0.02099007
  H     -3.41786044      3.13669268     -1.31807020
  C     -4.63499838      1.35887905      1.95717122
  H     -3.89240824      2.12164359      2.21263229
  H     -4.49261919      0.53737206      2.66628676
  C     -6.03237692      1.94471197      2.15646437
  H     -6.16842457      2.19428203      3.21041744
  H     -6.16426361      2.85599271      1.57368456
  H     -6.80940788      1.23459523      1.87285746
  P      0.71936025      4.07183344     -0.48513463
  C     -0.75819555      5.12241592     -0.96492298
  H     -1.61381064      4.75102653     -0.39223773
  H     -0.59320179      6.15927710     -0.65807366
  C     -1.10751197      5.10718899     -2.45140746
  H     -2.05758655      5.61900662     -2.61358524
  H     -0.33922358      5.60784002     -3.04111619
  H     -1.20429407      4.07852294     -2.80582844
  C      2.01789960      4.81711418     -1.63522650
  H      1.75709680      4.54434907     -2.66233041
  H      2.00979478      5.90937394     -1.58448259
  C      3.42331384      4.29547816     -1.34187484
  H      4.13058886      4.68659288     -2.07505475
  H      3.75444075      4.59407937     -0.34653817
  H      3.43766067      3.20314264     -1.39571488
  C      1.16411187      4.90439111      1.13875580
  H      1.97563378      4.32087999      1.58382678
  H      0.29724299      4.77468372      1.79505509
  C      1.57009975      6.37778334      1.13322719
  H      1.70837195      6.71343636      2.16270682
  H      2.50879817      6.52648150      0.60036183
  H      0.80644358      7.00423398      0.67253311
  P      3.63507830     -2.12896335      1.27677115
  C      5.29551698     -1.85375662      0.41483425
  H      5.64622883     -0.84550364      0.65803105
  H      6.04371077     -2.55819038      0.78877625
  C      5.20438611     -1.98875707     -1.10406462
  H      6.18853040     -1.84720837     -1.55381200
  H      4.82994988     -2.97341229     -1.38744240
  H      4.52697821     -1.23317433     -1.50780444
  C      3.59895619     -4.00575480      1.19835114
  H      3.08839130     -4.26701306      0.26512735
  H      4.61817078     -4.39691582      1.12305067
  C      2.88842879     -4.70646258      2.35511312
  H      2.75607879     -5.76401530      2.12032554
  H      3.46445527     -4.62804398      3.27720894
  H      1.90691953     -4.26087248      2.52524158
  C      4.16170469     -1.81520158      3.04883438
  H      3.35504466     -2.17697587      3.69328804
  H      4.19677520     -0.72866995      3.18201292
  C      5.48814085     -2.41000705      3.52277163
  H      5.59173166     -2.25147678      4.59782230
  H      5.53671055     -3.48137424      3.32926563
  H      6.33113885     -1.92980485      3.02635120
