#B3LYP/6-31+G(d) OPT FREQ

146, Energy =   -192.73182470 au

0 1
 Co     -1.63997629     -1.50566727      0.14206618
 Co      1.27898629      1.79078939     -0.18245338
 Co     -1.51772977      1.21806133     -1.27524156
 Co     -0.73491896      0.79990493      1.90636194
 Co      1.36141207     -1.24714801      1.01643722
 Co      0.77877403     -0.69736960     -1.93697925
 Te      2.74305353     -0.07195338     -0.60607764
 Te     -0.87976737      2.76850230      0.47890276
 Te      0.54264012      1.65222763     -2.48757088
 Te     -0.64747057     -1.59368255      2.34449477
 Te     -2.82096944      0.57927984      0.67137034
 Te     -1.59783843     -1.05326380     -2.23279260
 Te      1.72335078      0.93761212      2.03389219
 Te      0.29645446     -2.70919226     -0.64897640
  P      1.75193956      3.85037020     -0.54915526
  C      0.71451541      5.05797899     -1.54476946
  H     -0.33102505      4.76630257     -1.40989660
  H      0.81450026      6.06161490     -1.12185178
  C      1.01330595      5.13050189     -3.04124911
  H      0.24772978      5.72989755     -3.53737243
  H      1.98427981      5.58851101     -3.22982295
  H      1.00439647      4.12964127     -3.47553246
  C      3.42783184      4.07689264     -1.38767456
  H      3.35412715      3.65802248     -2.39578784
  H      3.67766445      5.13582993     -1.49412237
  C      4.55219577      3.35527292     -0.64703490
  H      5.48602330      3.44502760     -1.20441066
  H      4.70114137      3.77468441      0.34857075
  H      4.31260058      2.29358613     -0.54164080
  C      1.99045804      4.86553123      1.02335189
  H      2.50349939      4.22533876      1.74831250
  H      0.98796260      5.04271273      1.42712482
  C      2.73725941      6.19605351      0.93060010
  H      2.69676604      6.70121644      1.89740232
  H      3.78465491      6.04083670      0.67306086
  H      2.29168249      6.85447298      0.18470363
  P     -0.67278787      1.31256540      3.98867695
  C     -2.35284694      1.17350448      4.84265580
  H     -2.63978036      0.11691255      4.85037466
  H     -2.28728158      1.50102216      5.88371219
  C     -3.44621239      1.97869098      4.14290848
  H     -4.40860676      1.80149018      4.62581510
  H     -3.22875519      3.04680815      4.18346111
  H     -3.52587937      1.68226660      3.09377801
  C     -0.26782599      3.08825418      4.47202102
  H     -0.72338799      3.73213617      3.71212083
  H     -0.73795718      3.34078832      5.42712294
  C      1.22315696      3.41020687      4.54976470
  H      1.37013357      4.49047947      4.59735751
  H      1.67585227      2.96024530      5.43340412
  H      1.74270288      3.02480109      3.67015102
  C      0.36316754      0.33263173      5.20108056
  H      1.41103835      0.48295325      4.92473588
  H      0.14443754     -0.72396092      5.01763770
  C      0.19228585      0.61735242      6.69312745
  H      0.94884993      0.06427785      7.25283467
  H      0.31140530      1.67747553      6.91555864
  H     -0.78876280      0.29760407      7.04387254
  P      2.52192656     -2.70128458      2.09747727
  C      4.40444039     -2.64053039      2.03484196
  H      4.72492163     -1.69529635      2.48534356
  H      4.82706541     -3.44727323      2.64058629
  C      4.98413535     -2.73276033      0.62593244
  H      6.07326197     -2.67626133      0.66398278
  H      4.70165655     -3.67122603      0.14745923
  H      4.61579220     -1.90465845      0.01622565
  C      2.28981301     -4.53916722      1.80008876
  H      2.48937050     -4.72655835      0.74016217
  H      3.01943939     -5.11956429      2.37268547
  C      0.88221221     -5.03850144      2.11955832
  H      0.80369500     -6.10360272      1.89531125
  H      0.63753008     -4.88555368      3.17077727
  H      0.15001269     -4.50425598      1.51307892
  C      2.31647147     -2.59686003      3.96114331
  H      1.24871502     -2.71851053      4.16794940
  H      2.56566762     -1.56887511      4.24678943
  C      3.10735328     -3.55792733      4.84863855
  H      2.83077871     -3.39070047      5.89131890
  H      2.88880814     -4.59666739      4.60203916
  H      4.18076500     -3.39598130      4.75369655
  P     -2.73692150      1.69586097     -2.97635778
  C     -4.56081884      1.23617176     -2.85984054
  H     -4.86261982      1.37118057     -1.81613140
  H     -5.16742362      1.91889172     -3.46070629
  C     -4.88312576     -0.19474449     -3.28625523
  H     -5.91394689     -0.43783638     -3.02368187
  H     -4.76442625     -0.31678727     -4.36311404
  H     -4.21778568     -0.90322846     -2.78992047
  C     -2.44521739      1.24319274     -4.77366765
  H     -2.25607398      0.16602495     -4.80397651
  H     -3.36339231      1.42353653     -5.34174551
  C     -1.29107025      1.95794765     -5.47338654
  H     -1.14724726      1.53453270     -6.46902897
  H     -1.48941709      3.02472489     -5.57696900
  H     -0.36820858      1.83608809     -4.90452385
  C     -2.88217619      3.57796143     -3.09001064
  H     -1.87355988      3.95378339     -3.28996212
  H     -3.14654720      3.93893219     -2.08997604
  C     -3.84650427      4.19092597     -4.10624528
  H     -3.71865091      5.27499079     -4.11418741
  H     -3.65641209      3.81842679     -5.11228545
  H     -4.88297861      3.97532224     -3.84778012
  P     -3.39199410     -2.40884627      0.99833300
  C     -3.16653224     -4.26739006      1.24991555
  H     -2.40877229     -4.41092512      2.02659559
  H     -4.09204031     -4.72889969      1.60406682
  C     -2.71732288     -4.98152679     -0.02378103
  H     -2.52225405     -6.03453473      0.18552288
  H     -3.48499094     -4.91745907     -0.79611222
  H     -1.79999240     -4.52965945     -0.41052678
  C     -4.98720386     -2.47041482     -0.01250532
  H     -4.69899757     -2.61868000     -1.05816867
  H     -5.58675483     -3.33894156      0.27595268
  C     -5.85249485     -1.21552266      0.08121746
  H     -6.63576379     -1.24438247     -0.67814236
  H     -6.32550946     -1.13728984      1.06015685
  H     -5.24632589     -0.32122260     -0.07424172
  C     -4.06040241     -1.93586322      2.68356549
  H     -4.44932236     -0.91689868      2.60542762
  H     -3.20618258     -1.88850212      3.36569204
  C     -5.13281129     -2.83196247      3.30235543
  H     -5.50683330     -2.36419275      4.21497707
  H     -5.97454563     -2.97783534      2.62567060
  H     -4.72544642     -3.80806916      3.56512543
  P      2.23574410     -1.45840116     -3.31493472
  C      3.62896419     -0.41765633     -4.02091581
  H      4.22317358     -0.06088551     -3.17384139
  H      4.28436738     -1.03865119     -4.63926710
  C      3.17307995      0.78399669     -4.84596595
  H      4.03272128      1.40405216     -5.10573065
  H      2.68612172      0.46336179     -5.76756061
  H      2.46505467      1.39082632     -4.27676078
  C      1.48685140     -2.08670909     -4.93018518
  H      1.02126562     -1.23348158     -5.43392788
  H      2.26246547     -2.46843322     -5.59981233
  C      0.41966594     -3.15773103     -4.71175299
  H     -0.01036845     -3.45941616     -5.66820713
  H      0.83919451     -4.03947902     -4.22600969
  H     -0.38195707     -2.76656814     -4.07990534
  C      3.24240991     -2.93889366     -2.75548806
  H      2.58078855     -3.58153288     -2.16523944
  H      3.99605504     -2.55391277     -2.06251902
  C      3.94272207     -3.78773383     -3.81613682
  H      4.55637283     -4.54325359     -3.32196457
  H      3.22119532     -4.30059320     -4.45139486
  H      4.59306979     -3.18239978     -4.44779142

