146
Energy =   -192.69342019 au
 Co     -0.47899284     -2.25445060     -0.73901016
 Co      0.39938602      2.26243857     -0.02345808
 Co     -2.09315519      0.47723305     -0.48468487
 Co      0.19451213     -0.36190900      1.55117428
 Co      2.03066746     -0.40712628     -0.97204278
 Co     -0.25329031      0.34378179     -2.78464104
 Te      1.61093697      1.74941899     -2.04330371
 Te     -1.33126023      1.54327498      1.54659974
 Te     -1.24332297      2.34822633     -1.81039214
 Te      1.53345463     -2.16954600      0.59557984
 Te     -1.94968339     -1.41613521      1.02323207
 Te     -2.05503361     -1.22919527     -2.22415671
 Te      2.18869946      0.98132300      0.98202565
 Te      0.91009093     -1.78648790     -2.64109741
  P     -1.49761623      0.66932467     -4.50496044
  C     -1.81998211     -0.75589448     -5.69360166
  H     -2.53077319     -1.43224922     -5.20971287
  H     -2.28021087     -0.38926842     -6.61538557
  C     -0.56308507     -1.54386024     -6.05549137
  H     -0.82582399     -2.40146412     -6.67700859
  H      0.14359340     -0.92144550     -6.60597253
  H     -0.06712732     -1.90869042     -5.15256833
  C     -0.82024633      1.90064168     -5.77657259
  H     -0.00066323      1.41444602     -6.31459796
  H     -1.59159709      2.13703587     -6.51557446
  C     -0.29528530      3.19606407     -5.16387789
  H      0.07316693      3.86055197     -5.94731441
  H     -1.07997099      3.71110466     -4.60839998
  H      0.52382937      2.98439202     -4.47286051
  C     -3.23162959      1.34925050     -4.30011418
  H     -3.12974744      2.41233232     -4.06404408
  H     -3.66967863      0.87787903     -3.41514651
  C     -4.20256118      1.19263077     -5.46965152
  H     -5.12824921      1.72351451     -5.23991613
  H     -3.79100185      1.60969836     -6.38915036
  H     -4.44633835      0.14412109     -5.63992951
  P      0.37203503      4.18286936      0.95061582
  C     -0.53341603      5.53695263      0.00929786
  H     -1.58620119      5.24581189     -0.06529334
  H     -0.49657144      6.48107868      0.55961849
  C      0.01170494      5.76905895     -1.39938084
  H     -0.59492895      6.51625690     -1.91368910
  H      1.04271309      6.12228252     -1.36895494
  H     -0.02435690      4.84218512     -1.97516115
  C      2.06361123      5.00838057      1.07315691
  H      2.53925775      4.93184052      0.08986665
  H      1.95691140      6.07454772      1.29374326
  C      2.98904709      4.36483169      2.10388271
  H      3.97554560      4.82959781      2.06242794
  H      2.59544160      4.47763681      3.11440002
  H      3.09919029      3.29710320      1.89595846
  C     -0.31016358      4.51274352      2.66660248
  H      0.12858583      3.77060952      3.33921440
  H     -1.37804463      4.27770630      2.62311240
  C     -0.12835243      5.89997443      3.28381673
  H     -0.60222669      5.91768932      4.26697083
  H      0.92581451      6.14333228      3.41168776
  H     -0.59101824      6.67345273      2.67135932
  P      3.75165798     -0.56242877     -2.24430324
  C      3.96731761      0.18758135     -3.94923874
  H      3.97421740      1.27478174     -3.82761085
  H      4.94493782     -0.10376174     -4.34557333
  C      2.90173580     -0.17587909     -4.97954002
  H      3.16046459      0.25720025     -5.94766101
  H      2.81590782     -1.25660493     -5.09037907
  H      1.92955900      0.21426084     -4.67247858
  C      4.44390959     -2.27755427     -2.59303590
  H      3.70536468     -2.79684998     -3.21168745
  H      5.37009578     -2.22077164     -3.17213233
  C      4.68493564     -3.09536515     -1.32572055
  H      4.94442717     -4.12290926     -1.58530548
  H      5.49868599     -2.67041521     -0.73684017
  H      3.78561227     -3.11072174     -0.70399711
  C      5.21980769      0.26498841     -1.39056974
  H      5.25569836     -0.12219589     -0.36670823
  H      4.97030905      1.32805771     -1.30256461
  C      6.60750910      0.13159585     -2.01846511
  H      7.33532429      0.66017923     -1.40000578
  H      6.91289424     -0.91236504     -2.08399770
  H      6.63305975      0.56480141     -3.01811391
  P      1.16170301     -0.39118532      3.48665528
  C      2.95521735     -0.85214775      3.80056129
  H      3.56459678     -0.28450060      3.09145247
  H      3.24411943     -0.52917994      4.80519231
  C      3.28495662     -2.33686226      3.66135615
  H      4.36484418     -2.48169572      3.72368260
  H      2.81172487     -2.92121424      4.45080987
  H      2.93910850     -2.71192745      2.69551639
  C      0.37368633     -1.51261508      4.79081864
  H      0.46313871     -2.54537270      4.44041961
  H      0.90780457     -1.45154028      5.74295309
  C     -1.10521897     -1.20429863      5.00326201
  H     -1.55930520     -1.94879695      5.65893700
  H     -1.24455024     -0.21888968      5.44876277
  H     -1.62691269     -1.22233510      4.04368756
  C      1.11489471      1.26544328      4.37475964
  H      0.11557809      1.68251575      4.21343726
  H      1.81153908      1.92075494      3.84227363
  C      1.42997848      1.32054393      5.86936257
  H      1.41591807      2.36124662      6.19850617
  H      0.68920888      0.77232523      6.45056627
  H      2.41552818      0.90981230      6.08796524
  P     -0.78468343     -4.14835434      0.21322901
  C      0.47931869     -5.46694707     -0.26695215
  H      1.41058218     -5.23568796      0.25876721
  H      0.15020105     -6.45891789      0.05453073
  C      0.76068528     -5.50451347     -1.76769642
  H      1.58031467     -6.19351048     -1.97773729
  H     -0.11923013     -5.83450214     -2.32166807
  H      1.03972940     -4.51172213     -2.13058060
  C     -2.33935220     -5.11544847     -0.27037503
  H     -2.17579220     -5.54479206     -1.26356545
  H     -2.49163149     -5.95160801      0.41842425
  C     -3.60350115     -4.26245119     -0.31822332
  H     -4.45867266     -4.87050183     -0.61807853
  H     -3.81245335     -3.82226970      0.65705565
  H     -3.48381446     -3.45030487     -1.03918089
  C     -0.83028979     -4.37397472      2.07141271
  H     -1.83481074     -4.09899988      2.40353479
  H     -0.14736566     -3.64088159      2.50973003
  C     -0.48932486     -5.75432678      2.63109478
  H     -0.65655893     -5.75422346      3.70978709
  H     -1.11650271     -6.52927881      2.18953331
  H      0.55580085     -6.00443044      2.44984681
  P     -3.57692654      0.26054652      2.72940759
  C     -4.55882287     -0.94751824      3.84340996
  H     -4.15287688     -0.86761583      4.85581305
  H     -5.61495902     -0.66830690      3.89182952
  C     -4.45832340     -2.40099288      3.38902855
  H     -4.98179934     -3.05259078      4.09125313
  H     -4.90237792     -2.53117542      2.40152496
  H     -3.41622688     -2.71701309      3.33520712
  C     -4.91403720      0.39306083      1.41246850
  H     -5.11405460     -0.62103482      1.05444233
  H     -5.83560503      0.75575252      1.87680142
  C     -4.60600448      1.27344423      0.20824093
  H     -5.44844673      1.27142124     -0.48492142
  H     -4.40477137      2.30124308      0.51022260
  H     -3.71608338      0.88504029     -0.34095960
  C     -3.94283979      1.85969615      3.69640380
  H     -3.79056597      2.68024118      2.98841001
  H     -3.14614508      1.95429869      4.44197333
  C     -5.29125211      2.04380821      4.39231399
  H     -5.34806326      3.04929540      4.81441824
  H     -6.11993917      1.92264671      3.69404592
  H     -5.41494431      1.32859151      5.20561243
