146
Energy =   -192.66882468 au
 Co      1.12852855     -2.03993687      0.08925489
 Co     -0.26068844      1.37799884     -1.44477526
 Co     -1.94734940     -1.27828424     -0.25212865
 Co     -0.03200558      0.12445197      0.90103886
 Co      2.40122106      0.25758311     -0.79542118
 Co      0.09886456     -1.56223409     -2.59328192
 Te      1.38067668      0.46588227     -3.01761914
 Te     -2.08150509      1.14869306      0.10816350
 Te     -1.90030864     -0.15826124     -2.42890702
 Te      2.19925006     -0.44237375      1.57100032
 Te     -0.65964543     -2.08686089      1.70158629
 Te     -0.67892034     -3.23076099     -1.00084717
 Te      1.22058300      2.10612876      0.30519719
 Te      2.43052934     -1.91226122     -1.95782317
  P     -1.12873280      3.13239697      1.95845945
  C     -2.90872651      3.43513129      2.54680909
  H     -3.39973710      2.46555588      2.66621730
  H     -2.95957024      3.95395447      3.50768933
  C     -3.68033341      4.23490414      1.49740776
  H     -4.72023181      4.36474365      1.80230314
  H     -3.23634044      5.22119341      1.35484598
  H     -3.66358325      3.70608569      0.54195934
  C     -0.40640056      4.71989074      2.74037273
  H     -0.89729495      5.57109870      2.25927579
  H     -0.64570451      4.77045603      3.80708718
  C      1.10256630      4.86078124      2.55906515
  H      1.44380251      5.81573470      2.96323276
  H      1.63452325      4.05870782      3.07238815
  H      1.36866249      4.81543343      1.50218246
  C     -0.55176175      1.91914605      3.27135086
  H      0.50451378      2.12794182      3.46549358
  H     -0.57911678      0.91279173      2.81181532
  C     -1.29343010      1.87103305      4.60479888
  H     -0.78112840      1.18105025      5.27866107
  H     -1.31995518      2.85277085      5.07884634
  H     -2.31642914      1.51839289      4.47417057
  P      4.48097695      0.68558346     -0.47587013
  C      5.36259584      1.69593209     -1.80159511
  H      5.00363565      2.72806565     -1.74282026
  H      6.44105337      1.71665497     -1.62000317
  C      5.10593742      1.16697325     -3.21203324
  H      5.57621629      1.82031324     -3.94868868
  H      5.51148188      0.16130556     -3.33143006
  H      4.03253248      1.12909347     -3.41608642
  C      5.72614711     -0.71502333     -0.35784993
  H      5.79203286     -1.17778498     -1.34781630
  H      6.71928662     -0.31924288     -0.12419684
  C      5.36738476     -1.80041227      0.65471256
  H      6.15128174     -2.55940774      0.68104414
  H      5.25379506     -1.38237207      1.65529409
  H      4.42910951     -2.28188448      0.37567910
  C      4.90754925      1.69656749      1.04531645
  H      4.71362232      1.05870685      1.91364927
  H      4.17435928      2.50894589      1.10063820
  C      6.31271176      2.28688469      1.15697375
  H      6.42327660      2.77233919      2.12832258
  H      7.07718603      1.51410312      1.07395202
  H      6.48711731      3.03361976      0.38239451
  P      1.30747625     -2.01222962      3.70675780
  C      2.55061851     -3.36930669      3.34151645
  H      3.51628835     -2.89111964      3.15527611
  H      2.66505762     -4.02221307      4.21129131
  C      2.19310984     -4.22583177      2.13056139
  H      2.99107176     -4.93995824      1.92278680
  H      1.26564514     -4.77363752      2.29892631
  H      2.05650903     -3.58921423      1.23698888
  C      0.17983586     -3.01004742      4.87168009
  H     -0.20390607     -3.85919160      4.29899003
  H      0.72061982     -3.41397265      5.73120575
  C     -1.00079518     -2.17151224      5.35463004
  H     -1.69658522     -2.78452260      5.92977447
  H     -0.66276658     -1.34750961      5.98433307
  H     -1.53445251     -1.75447810      4.49801688
  C      2.27935271     -1.02770325      5.00610152
  H      1.55935367     -0.36970944      5.50335349
  H      2.95908053     -0.37604445      4.44908372
  C      3.07470955     -1.78594446      6.06884888
  H      3.54521149     -1.07159255      6.74732717
  H      2.43158839     -2.43971683      6.65810843
  H      3.85961666     -2.39001469      5.61348566
  P     -0.13164880      3.35326876     -2.30614235
  C     -1.26951123      3.64528576     -3.78493296
  H     -2.30438434      3.63693895     -3.42736457
  H     -1.08422849      4.63042257     -4.22223788
  C     -1.11980235      2.58539529     -4.87458611
  H     -1.75931902      2.82757563     -5.72501137
  H     -0.08750145      2.52237059     -5.22133048
  H     -1.41580409      1.60800157     -4.48760712
  C      1.44720187      4.03954303     -3.05534654
  H      1.87480683      3.24662236     -3.67716479
  H      1.21355022      4.87616726     -3.72114330
  C      2.50393116      4.49044045     -2.04934646
  H      3.42771330      4.74399021     -2.57239833
  H      2.16980105      5.36784006     -1.49517502
  H      2.71430669      3.69599359     -1.33192971
  C     -0.68134102      4.78495688     -1.22285629
  H      0.06410282      4.88610770     -0.42855530
  H     -1.60772714      4.47564182     -0.72582957
  C     -0.90402594      6.15005393     -1.87341728
  H     -1.11908627      6.88759510     -1.09800627
  H     -0.01991033      6.47762890     -2.42029761
  H     -1.74901972      6.12475207     -2.56113791
  P     -3.69240028     -1.76456563      0.92599281
  C     -3.95629516     -3.48369890      1.63676507
  H     -3.23021080     -3.62586443      2.44290638
  H     -4.95624543     -3.57421704      2.07050893
  C     -3.76444678     -4.59303860      0.60411548
  H     -3.86690783     -5.56955459      1.08039532
  H     -4.50597372     -4.51709538     -0.19218610
  H     -2.77065261     -4.52810445      0.15437250
  C     -5.37995389     -1.54395289      0.10420619
  H     -5.53307845     -2.37844698     -0.58711665
  H     -6.18610709     -1.58799074      0.84234274
  C     -5.47978405     -0.23757516     -0.68123981
  H     -6.45078875     -0.16619798     -1.17393554
  H     -5.35957041      0.62386563     -0.02272988
  H     -4.69806684     -0.19234607     -1.44359206
  C     -3.94386226     -0.71889593      2.46291587
  H     -4.22654217      0.28223164      2.12275786
  H     -2.96995116     -0.61161538      2.95017167
  C     -4.95899577     -1.19316852      3.50231389
  H     -5.06396706     -0.43020043      4.27580931
  H     -5.93913561     -1.36242587      3.05582913
  H     -4.62872820     -2.11611491      3.97884262
  P     -0.77125568     -2.90787163     -4.03823338
  C     -0.28172228     -2.46643759     -5.81364149
  H      0.77160866     -2.73021753     -5.95274951
  H     -0.86227310     -3.04932867     -6.53414640
  C     -0.45892562     -0.98024459     -6.11945281
  H     -0.13791868     -0.76449850     -7.13983777
  H     -1.50297502     -0.68205567     -6.01405179
  H      0.14188512     -0.37910694     -5.43255455
  C     -2.62096036     -3.03444154     -4.32363534
  H     -2.97823712     -2.02652949     -4.55663495
  H     -2.81591456     -3.65444766     -5.20423893
  C     -3.43513995     -3.57100240     -3.14903494
  H     -4.48404601     -3.66350561     -3.43697004
  H     -3.07290806     -4.54906499     -2.83252929
  H     -3.36769451     -2.88926767     -2.29937264
  C     -0.26389304     -4.71764375     -4.03472867
  H     -0.69789480     -5.16399846     -3.13503292
  H      0.82164157     -4.74304842     -3.89011898
  C     -0.62015157     -5.57985770     -5.24586763
  H     -0.30991811     -6.60957608     -5.05886738
  H     -1.69399867     -5.57709344     -5.43243512
  H     -0.11002538     -5.23007472     -6.14313646
