#B3LYP/6-31+G(d) OPT FREQ

146, Energy =   -192.65936027 au

0 1
 Co     -1.23548312     -1.67010448     -0.21506560
 Co     -0.11911319      1.65009944     -0.16193080
 Co     -2.71156392      0.43998069     -0.05718593
 Co     -0.66307392     -0.55690567      2.52113870
 Co      1.13930638     -1.22576681      0.60374546
 Co     -0.51396702     -0.61797105     -2.27583996
 Te      1.60753590      0.20552664     -1.30139611
 Te     -1.61264387      1.55406568      1.81603198
 Te     -1.69927289      1.49372845     -2.00262940
 Te     -0.32625536     -2.82263378      1.71005219
 Te     -2.79031947     -1.36165272      1.61578779
 Te     -2.87620071     -1.14114068     -1.90460416
 Te      1.19120468      0.88961824      1.76855659
 Te      0.72457860     -2.52474139     -1.38232391
  P      3.73747380      1.22592435      0.47036671
  C      4.99994763      1.96120948     -0.75723004
  H      4.81697091      3.03961191     -0.78905645
  H      6.02646218      1.81525600     -0.41043127
  C      4.88296493      1.39965018     -2.17287035
  H      5.49008694      1.98950682     -2.86208850
  H      5.22619020      0.36521930     -2.21098529
  H      3.84766187      1.42215619     -2.51517126
  C      4.50702605     -0.48824953      0.54756524
  H      4.48447439     -0.90071223     -0.46517770
  H      5.55834647     -0.41153361      0.83929587
  C      3.80988177     -1.47342769      1.47743920
  H      4.29821067     -2.44805562      1.43325183
  H      3.82617703     -1.12202413      2.50921693
  H      2.74570040     -1.60218100      1.17081166
  C      4.45005025      1.95484875      2.07551876
  H      4.00499890      1.37099357      2.88781017
  H      4.02879499      2.96198682      2.16611294
  C      5.96156136      2.03556517      2.29206373
  H      6.16502892      2.37704373      3.30908318
  H      6.43639342      1.06282813      2.16078855
  H      6.42076763      2.74250950      1.60078209
  P      0.50576407     -5.00620726     -0.16840900
  C      0.96972414     -5.91506171     -1.76505835
  H      1.85592480     -5.43123791     -2.18568631
  H      1.21444461     -6.96697542     -1.59648771
  C     -0.16730183     -5.81967471     -2.78286675
  H      0.12145655     -6.29155872     -3.72344866
  H     -1.06528337     -6.31295740     -2.40831067
  H     -0.40611531     -4.77268198     -2.97980958
  C     -0.32108258     -6.49194380      0.70309365
  H     -1.31727526     -6.59151308      0.26112107
  H      0.21827079     -7.41793660      0.48335440
  C     -0.46827852     -6.34504316      2.21492534
  H     -1.05150810     -7.17648114      2.61519266
  H      0.50643621     -6.34071185      2.70385021
  H     -0.97540931     -5.41136660      2.46164317
  C      2.17817212     -4.99582298      0.66852785
  H      2.02557548     -4.67224837      1.70203011
  H      2.76841540     -4.21173948      0.18423135
  C      2.98745853     -6.29319231      0.66676813
  H      3.92013361     -6.13751038      1.21225299
  H      2.44171947     -7.10257334      1.15142094
  H      3.23585467     -6.60117909     -0.34869207
  P     -0.03941046     -0.96462570      4.56538245
  C     -1.12323601     -2.12864971      5.56814822
  H     -1.02052847     -3.13457482      5.14829832
  H     -0.80573625     -2.17617636      6.61370556
  C     -2.59548509     -1.71871967      5.51064386
  H     -3.21154854     -2.44846978      6.03869401
  H     -2.74451444     -0.74132752      5.97175723
  H     -2.93430079     -1.66395607      4.47279955
  C      0.11305390      0.43648701      5.81604224
  H     -0.85131156      0.95439483      5.84437406
  H      0.29818777      0.05535133      6.82459790
  C      1.19834377      1.44666765      5.44567268
  H      1.13096292      2.32658654      6.08751504
  H      2.19138861      1.01046554      5.55953071
  H      1.08687683      1.76457623      4.40593254
  C      1.62314738     -1.81105180      4.76531757
  H      2.37890756     -1.15137408      4.32572372
  H      1.59908155     -2.70775114      4.13645316
  C      2.07276345     -2.20626948      6.17203570
  H      3.06033510     -2.66845776      6.11925093
  H      2.13886958     -1.33683340      6.82604156
  H      1.38458678     -2.92460064      6.61768917
  P     -0.01992493     -0.26075784     -4.34611944
  C     -1.42461264     -0.21798975     -5.59260936
  H     -2.05497275      0.64639550     -5.35890202
  H     -1.04064040     -0.07649440     -6.60695123
  C     -2.28557355     -1.48034655     -5.55987901
  H     -3.11640835     -1.38475980     -6.26078864
  H     -1.70044541     -2.35938167     -5.83290641
  H     -2.69342582     -1.63302868     -4.55702301
  C      1.12796525     -1.45542882     -5.23593775
  H      0.66893339     -2.44855876     -5.19492544
  H      1.22484181     -1.19379465     -6.29372203
  C      2.51612430     -1.53826473     -4.60251878
  H      3.11845460     -2.28886721     -5.11703872
  H      3.03257982     -0.57968479     -4.66133065
  H      2.43519907     -1.82093742     -3.55068161
  C      0.79150165      1.38344218     -4.72651098
  H      1.69851542      1.43873524     -4.11645278
  H      0.11815792      2.15923137     -4.34614597
  C      1.15306213      1.70920873     -6.17524023
  H      1.62889304      2.69087969     -6.21354148
  H      1.85028196      0.97802078     -6.58390970
  H      0.26658389      1.73662841     -6.80861585
  P      0.08277276      3.81103008     -0.56903422
  C      0.67100887      4.49719253     -2.21649347
  H     -0.01555564      4.13484855     -2.98835510
  H      0.64135009      5.59014671     -2.24150010
  C      2.08648338      4.02755490     -2.54977344
  H      2.33834617      4.27739211     -3.58162071
  H      2.81748322      4.49905727     -1.89211968
  H      2.16392865      2.94616311     -2.42529423
  C      1.20426836      4.82501457      0.56081406
  H      2.22099530      4.43245035      0.45139089
  H      1.23558453      5.87592375      0.25901594
  C      0.80916132      4.72628818      2.03398812
  H      1.52468971      5.27231245      2.65129012
  H     -0.18397171      5.14316034      2.20464776
  H      0.80302989      3.68280386      2.35545959
  C     -1.53266643      4.75681876     -0.41232696
  H     -2.01158500      4.42439722      0.51509277
  H     -2.17425038      4.40707691     -1.22797861
  C     -1.50477335      6.28542059     -0.42894127
  H     -2.52681332      6.66444520     -0.36921143
  H     -0.94729581      6.68035648      0.42008467
  H     -1.05487181      6.66505249     -1.34637444
  P     -4.62788832      1.36410681      0.30312874
  C     -5.95412971      0.28200270      1.07837561
  H     -5.62797296      0.02516566      2.09132182
  H     -6.90070356      0.82300613      1.16549366
  C     -6.19445226     -1.01139352      0.30073022
  H     -6.92759198     -1.62945616      0.82149183
  H     -6.56736641     -0.80216062     -0.70237742
  H     -5.26564148     -1.57834943      0.21365878
  C     -5.60994559      1.96202238     -1.18735866
  H     -5.67247379      1.12765307     -1.89377996
  H     -6.63554584      2.21189682     -0.89947540
  C     -4.98023766      3.15429705     -1.90556540
  H     -5.56754539      3.41071661     -2.78898711
  H     -4.93468568      4.02800678     -1.25481613
  H     -3.96478953      2.90808100     -2.22537017
  C     -4.74022285      2.85122397      1.44207351
  H     -4.03249530      3.59805854      1.06846884
  H     -4.34575982      2.53088821      2.41197407
  C     -6.09910132      3.52014697      1.65006323
  H     -5.98235412      4.36802995      2.32752067
  H     -6.50628994      3.89092258      0.70983411
  H     -6.81721079      2.82941566      2.09137106

