146
Energy =   -192.73561783 au
 Co     -1.04094012     -2.06236547      0.41035025
 Co      0.84967143      1.83932711     -0.31854652
 Co     -1.99483971      1.08589768      0.44762209
 Co      0.30021304      0.04284063      2.17557109
 Co      1.69499326     -1.09111617     -0.58495870
 Co     -0.89124181     -0.31413957     -2.07485707
 Te      1.33305235      0.58224465     -2.34672354
 Te     -0.34809394      2.32786638      1.74221282
 Te     -1.17909776      2.04710083     -1.66195200
 Te      1.15914258     -2.12959289      1.53011789
 Te     -2.05790540     -0.67138653      2.11969096
 Te     -2.85379685     -0.87136313     -0.69293745
 Te      2.39520495      0.54468894      1.08689658
 Te      0.07058772     -2.50809974     -1.70136240
  P     -0.03406192      0.09728012      4.29360978
  C      1.47782569      0.76444957      5.21311123
  H      1.60084849      1.81945407      4.94759960
  H      1.32926547      0.71424959      6.29509994
  C      2.75814527      0.01169913      4.85426189
  H      3.61044054      0.45094098      5.37518082
  H      2.68341238     -1.03973453      5.13542358
  H      2.94259738      0.06952968      3.77822522
  C     -0.27616333     -1.48820357      5.28110667
  H      0.29930294     -2.26782442      4.77056259
  H      0.15477795     -1.38054110      6.28099581
  C     -1.72259330     -1.96142479      5.41486102
  H     -1.74493276     -2.98157128      5.80188807
  H     -2.28415926     -1.32216917      6.09598672
  H     -2.21983986     -1.94486073      4.44346102
  C     -1.35713853      1.21251928      5.00871022
  H     -2.32622627      0.77493333      4.75238187
  H     -1.29742802      2.16192801      4.46622759
  C     -1.31519453      1.49583306      6.51022162
  H     -2.21756786      2.03695957      6.80045956
  H     -1.26886389      0.57429016      7.09029000
  H     -0.45328795      2.11097576      6.76809286
  P     -0.98265523     -4.15679425      0.87872222
  C      0.41280795     -5.34201056      0.46417494
  H      1.34944264     -4.79162149      0.59194196
  H      0.42706029     -6.15934712      1.19085329
  C      0.38304393     -5.94353173     -0.93956690
  H      1.31679243     -6.47578914     -1.12940526
  H     -0.44324774     -6.64570896     -1.05111804
  H      0.27727824     -5.15350039     -1.68518964
  C     -2.44510311     -5.10193200      0.14551829
  H     -2.34739408     -5.07346884     -0.94404771
  H     -2.42955050     -6.15355907      0.44380518
  C     -3.78660213     -4.47703194      0.52467083
  H     -4.59919040     -4.98972611      0.00741789
  H     -3.96301073     -4.54415321      1.59871847
  H     -3.80501237     -3.42192692      0.23792982
  C     -1.18757955     -4.54250490      2.71140598
  H     -1.92507617     -3.83736181      3.10717547
  H     -0.23451236     -4.28857083      3.18711382
  C     -1.59432095     -5.95629332      3.12640552
  H     -1.57831027     -6.03019442      4.21537476
  H     -2.60242358     -6.19120143      2.78599106
  H     -0.91058341     -6.70464058      2.72555152
  P      3.47559327     -1.50262851     -1.71850092
  C      3.49067123     -1.93358233     -3.54486664
  H      2.98194134     -1.12012991     -4.07111424
  H      4.52138553     -1.96036633     -3.91115108
  C      2.81585736     -3.25568587     -3.90437871
  H      2.74889134     -3.35396311     -4.98921646
  H      3.38113212     -4.10258906     -3.51406914
  H      1.80674595     -3.29399228     -3.48805075
  C      4.46172369     -2.97175134     -1.05719828
  H      3.84163673     -3.86667379     -1.17108556
  H      5.36989365     -3.13501696     -1.64393184
  C      4.82048006     -2.81918071      0.41995287
  H      5.32729567     -3.71675007      0.77809303
  H      5.47728913     -1.96318142      0.57907287
  H      3.91456595     -2.67315294      1.01424089
  C      4.77534415     -0.15036513     -1.72426324
  H      4.81421121      0.25701800     -0.70968863
  H      4.38585760      0.64905672     -2.36324395
  C      6.19805722     -0.49103997     -2.16695304
  H      6.79843405      0.42062168     -2.17219762
  H      6.66462153     -1.19948981     -1.48302038
  H      6.21605501     -0.91449203     -3.17107011
  P      2.09229393      3.59022348     -0.37764990
  C      1.50881863      4.91952639     -1.57642710
  H      0.53203698      5.28128178     -1.23890507
  H      2.19311306      5.77239494     -1.56592018
  C      1.37622720      4.41320283     -3.01190331
  H      1.03870967      5.22083868     -3.66349084
  H      2.33076733      4.04061843     -3.38549795
  H      0.64570248      3.60300471     -3.05981243
  C      3.89536794      3.51256135     -0.90742395
  H      3.95219777      2.82646450     -1.75859640
  H      4.23313127      4.48926086     -1.26690064
  C      4.84852568      3.02248155      0.18187252
  H      5.81841860      2.77601760     -0.25321809
  H      4.99741427      3.78562757      0.94574999
  H      4.44584866      2.12897294      0.66529063
  C      2.21876355      4.60825390      1.19174033
  H      2.71420668      3.98514326      1.94349570
  H      1.19605806      4.75363631      1.55411795
  C      2.92067883      5.96481350      1.12087706
  H      2.99776472      6.38365782      2.12585798
  H      3.92647106      5.87580258      0.71125787
  H      2.35663058      6.66455246      0.50447082
  P     -2.05669572     -1.19610587     -3.64785169
  C     -1.04440897     -1.53499836     -5.20577455
  H     -0.34337607     -2.34399139     -4.97739815
  H     -1.68772005     -1.87741653     -6.02069318
  C     -0.25759847     -0.31548713     -5.68217282
  H      0.37374568     -0.58501643     -6.53041798
  H     -0.93107713      0.48508702     -5.99118570
  H      0.38229127      0.06307928     -4.88072246
  C     -3.41554033     -0.14368583     -4.43117974
  H     -3.02123086      0.87427509     -4.51652859
  H     -3.62904492     -0.48803885     -5.44747647
  C     -4.71884429     -0.09444166     -3.63656873
  H     -5.37563552      0.67640111     -4.04335820
  H     -5.24000429     -1.05092617     -3.68127398
  H     -4.52042030      0.13299479     -2.58771537
  C     -2.92724236     -2.84580368     -3.47391159
  H     -3.71613625     -2.71922123     -2.72738208
  H     -2.20508506     -3.54596102     -3.04290083
  C     -3.52920106     -3.47165617     -4.73152242
  H     -4.09247938     -4.36396951     -4.45211286
  H     -4.20897610     -2.78432651     -5.23486795
  H     -2.75164092     -3.76924840     -5.43473346
  P     -3.13152537      2.90875345      0.54759680
  C     -3.90283993      3.21873170      2.24341098
  H     -3.08861415      3.44362553      2.93946439
  H     -4.56570980      4.08764278      2.21858617
  C     -4.68921721      2.01863979      2.76726667
  H     -5.02030857      2.20479727      3.79025510
  H     -5.56655672      1.82893561      2.14749043
  H     -4.06526647      1.12111890      2.76310680
  C     -4.71887539      2.96378213     -0.48160769
  H     -5.17570190      1.97082252     -0.41576806
  H     -5.43226285      3.67092605     -0.04830878
  C     -4.50800290      3.30477110     -1.95501748
  H     -5.41943014      3.10332376     -2.52039432
  H     -4.24944826      4.35646599     -2.07978537
  H     -3.69689562      2.70599943     -2.37421055
  C     -2.42437674      4.61001381      0.20470522
  H     -2.12919895      4.63227674     -0.84794156
  H     -1.50182008      4.69938761      0.78585753
  C     -3.30870494      5.82143120      0.49813856
  H     -2.80775389      6.72380619      0.14259271
  H     -4.27196570      5.74662410     -0.00606336
  H     -3.48405208      5.93171128      1.56808760
