146
Energy =   -192.73080321 au
 Co     -2.11165614     -0.16678896     -0.72567675
 Co      1.99648662     -0.06063218      0.75606808
 Co     -0.18238181      2.06335780      0.72628962
 Co     -0.99009309     -0.54383378      2.06926138
 Co      0.14310294     -2.19171816     -0.40081059
 Co      0.62481870      0.61784593     -1.91742921
 Te      2.12379294     -1.20200362     -1.39972802
 Te      0.84008516      0.93125991      2.65424447
 Te      1.93266241      2.05100865     -0.47123622
 Te     -2.02496452     -2.21498810      0.64786025
 Te     -2.42474230      1.26036347      1.20650414
 Te     -1.32059610      2.02515571     -1.41270797
 Te      0.96601170     -1.95216918      1.89296531
 Te     -0.79150934     -1.28840923     -2.44216835
  P      1.14921855     -4.07802765     -0.50796519
  C      1.53643655     -4.74592017     -2.22543423
  H      2.33222483     -4.12519495     -2.64970642
  H      1.91559346     -5.76946418     -2.15733726
  C      0.34023053     -4.73236629     -3.17474426
  H      0.64887267     -5.06210261     -4.16845847
  H     -0.44929986     -5.39576626     -2.81811575
  H     -0.07038714     -3.72262356     -3.25510946
  C      0.25574631     -5.59452657      0.17503519
  H     -0.59479398     -5.81127395     -0.48039936
  H      0.91193283     -6.47031902      0.14568996
  C     -0.26490809     -5.39726435      1.59630506
  H     -0.75338423     -6.30718812      1.95009663
  H      0.54770478     -5.14783466      2.28099793
  H     -0.99343965     -4.58216749      1.61557305
  C      2.82562992     -4.29033511      0.29979960
  H      2.66192715     -4.29605444      1.38167205
  H      3.40251836     -3.38692023      0.07770714
  C      3.66653666     -5.50948142     -0.08256624
  H      4.55370554     -5.54519860      0.55238452
  H      3.11270177     -6.43940571      0.05463634
  H      3.99570296     -5.44811988     -1.12064615
  P      0.15368917      3.90063728      1.76979194
  C     -0.32659761      5.41431621      0.74545543
  H     -1.41588298      5.42548779      0.63675336
  H     -0.04113757      6.33434523      1.26314699
  C      0.30394577      5.41303458     -0.64645293
  H      0.05080614      6.33379153     -1.17482892
  H      1.39029931      5.33229449     -0.58428165
  H     -0.07020444      4.56614229     -1.22627548
  C      1.84633481      4.48116667      2.33861900
  H      2.56465524      4.12377223      1.59338420
  H      1.89245175      5.57421101      2.32448401
  C      2.28271743      3.98838162      3.71744601
  H      3.34189794      4.20288081      3.86831205
  H      1.71686497      4.47929352      4.50885195
  H      2.12879265      2.91107992      3.80185386
  C     -0.89789115      4.21211896      3.29284735
  H     -0.52890998      3.54916927      4.08151502
  H     -1.91093396      3.86970389      3.05577405
  C     -0.97280512      5.64057974      3.83240613
  H     -1.51672981      5.64262807      4.77877892
  H      0.02063571      6.05244419      4.00833455
  H     -1.49966778      6.29300851      3.13630262
  P      0.73770509      1.54163671     -3.84656553
  C     -0.74435034      2.21353977     -4.77869957
  H     -1.18324257      3.00799359     -4.16792581
  H     -0.43372810      2.65826525     -5.72902797
  C     -1.81630899      1.16185116     -5.05795033
  H     -2.70280789      1.63598781     -5.48365514
  H     -1.45459716      0.41015083     -5.76112754
  H     -2.10017116      0.65517684     -4.13462508
  C      1.44739548      0.48010744     -5.23156050
  H      0.76159108     -0.36144589     -5.37359938
  H      1.46787464      1.03868480     -6.17184857
  C      2.83849693     -0.07652735     -4.93937503
  H      3.15525118     -0.73458518     -5.75036085
  H      3.56960066      0.72627851     -4.83919722
  H      2.82799400     -0.65217711     -4.01056583
  C      1.85258100      3.05281651     -3.89652895
  H      2.78836029      2.77296800     -3.40217909
  H      1.38995082      3.80665748     -3.25061471
  C      2.17337858      3.68499222     -5.25080178
  H      2.82786973      4.54549303     -5.09998539
  H      2.68599683      2.97865781     -5.90333230
  H      1.26985197      4.02992483     -5.75321537
  P     -3.88449174     -1.13278757     -1.44976214
  C     -3.99096725     -2.86644749     -2.15743662
  H     -3.31908266     -3.49748097     -1.56812541
  H     -5.00178013     -3.25937004     -2.01308696
  C     -3.62641586     -2.99756799     -3.63501310
  H     -3.54868082     -4.05290934     -3.90210420
  H     -4.38211805     -2.53547896     -4.27061133
  H     -2.66397929     -2.52000606     -3.82920795
  C     -4.78447312     -0.17770629     -2.81340903
  H     -4.16568206     -0.20574590     -3.71434152
  H     -5.73603224     -0.65307117     -3.06522848
  C     -5.01927448      1.28324371     -2.43503229
  H     -5.46807070      1.82139660     -3.27147866
  H     -5.68349049      1.36532420     -1.57379075
  H     -4.06957453      1.76378512     -2.18301668
  C     -5.24999096     -1.23635695     -0.15656627
  H     -5.21084818     -0.31277725      0.42912435
  H     -4.96218695     -2.04331431      0.52467871
  C     -6.68876691     -1.45979982     -0.62079580
  H     -7.32414443     -1.63389543      0.24932061
  H     -7.07163524     -0.58751089     -1.14955015
  H     -6.76849763     -2.32592303     -1.27765543
  P     -2.29748312     -0.44492251      3.76725367
  C     -1.76297885     -1.65482750      5.11949739
  H     -0.81996266     -1.29802558      5.54660858
  H     -2.49783504     -1.68301076      5.92880123
  C     -1.55623969     -3.07130856      4.58520522
  H     -1.26379839     -3.74150676      5.39531473
  H     -2.47033761     -3.45435970      4.12924958
  H     -0.76686233     -3.07479621      3.83025336
  C     -4.11246424     -0.92543395      3.67129666
  H     -4.18942276     -1.70175633      2.90251792
  H     -4.43310013     -1.38046327      4.61333339
  C     -5.07466527      0.20754949      3.31783301
  H     -6.05596768     -0.20274195      3.07264617
  H     -5.18947894      0.90104265      4.15078824
  H     -4.70400457      0.76624099      2.45669529
  C     -2.35016188      1.13318794      4.77582944
  H     -2.88131100      1.88230674      4.18072448
  H     -1.31648332      1.48607693      4.86132351
  C     -2.96509505      1.07122044      6.17425629
  H     -3.03870325      2.08125340      6.58216019
  H     -3.96511687      0.63801296      6.15184692
  H     -2.34591363      0.47794854      6.84734524
  P      4.10936157      0.26883645      0.88608229
  C      5.21640366      1.05185229     -0.40848137
  H      4.97942339      2.11930700     -0.43979376
  H      6.26000167      0.95369994     -0.09458742
  C      5.07894113      0.48626192     -1.81850261
  H      5.84564401      0.91254150     -2.46797543
  H      5.18117934     -0.59894914     -1.82055809
  H      4.10089210      0.73718090     -2.22695834
  C      5.18305398     -1.23124789      1.29373610
  H      5.10778635     -1.92551180      0.45071540
  H      6.23664430     -0.95212493      1.38137861
  C      4.73713623     -1.94706493      2.56713235
  H      5.26294295     -2.89751694      2.67071148
  H      4.94374630     -1.33807025      3.44780146
  H      3.66252444     -2.14741428      2.53513514
  C      4.52921415      1.41353564      2.31739211
  H      3.99681144      1.04326362      3.19931687
  H      4.08186165      2.38300917      2.07599635
  C      5.99901563      1.63002650      2.67977398
  H      6.06166459      2.31250161      3.52893061
  H      6.48115710      0.69454767      2.96070105
  H      6.55142681      2.07028149      1.85050002
