#B3LYP/6-31+G(d) OPT FREQ

146, Energy =   -192.73163196 au

0 1
 Co     -0.22002445     -2.16406523      0.15888947
 Co      0.67255246      2.17156880     -0.13351576
 Co     -2.02670272      0.32114622     -0.33428361
 Co     -0.14969532      0.22654796      2.08110144
 Co      2.28135511     -0.41995866     -0.01469946
 Co      0.22979960     -0.03478685     -2.31440640
 Te      2.20774099      1.26494599     -1.77652027
 Te     -1.38157479      2.14027940      1.15768288
 Te     -1.04703829      1.99379235     -1.80376482
 Te      1.41230472     -1.63156437      1.90817180
 Te     -2.00823966     -1.24947984      1.52139499
 Te     -1.54025172     -1.61054896     -1.77714271
 Te      2.01494677      1.26522670      1.70620385
 Te      1.41400039     -2.02816029     -1.64969057
  P      1.64117305      3.99581173      0.42742461
  C      1.01578715      5.45987792     -0.59523746
  H     -0.03090516      5.64153730     -0.33064964
  H      1.57598439      6.36806769     -0.35684988
  C      1.10655883      5.20068568     -2.09819796
  H      0.71904104      6.05751423     -2.65172591
  H      2.13963532      5.02790273     -2.40283306
  H      0.51656479      4.32067606     -2.36491932
  C      3.48562917      4.26058310      0.18223052
  H      3.76804779      3.66001380     -0.68952065
  H      3.68361820      5.30605480     -0.07293300
  C      4.37956651      3.86369635      1.35547565
  H      5.42475594      3.86876199      1.04127427
  H      4.26662966      4.55706722      2.18896751
  H      4.12469564      2.86230336      1.70585843
  C      1.34267764      4.66428633      2.15278827
  H      1.90473701      4.03227314      2.84646785
  H      0.28373551      4.49597284      2.37837009
  C      1.68050106      6.13096157      2.41975396
  H      1.57743112      6.33784104      3.48655511
  H      2.70346206      6.36344110      2.12383685
  H      1.00431853      6.79283987      1.87898396
  P     -0.98512129      0.48867903      4.03650305
  C     -2.78623338      0.88806310      4.37109027
  H     -3.38058950      0.28069445      3.68157249
  H     -3.05621618      0.57479221      5.38386505
  C     -3.16711870      2.35718158      4.19969475
  H     -4.25277904      2.46423107      4.22799086
  H     -2.73810582      2.96844212      4.99404329
  H     -2.80616180      2.73188658      3.23908922
  C     -0.17763348      1.74537421      5.18577054
  H     -0.31274084      2.73532907      4.73825501
  H     -0.67794086      1.76225780      6.15823625
  C      1.31869503      1.50794706      5.38196678
  H      1.74840342      2.30916629      5.98552115
  H      1.50613231      0.55775485      5.88291130
  H      1.82751883      1.49247921      4.41442836
  C     -0.84528623     -1.09591631      5.04285193
  H      0.13864805     -1.52978019      4.83457959
  H     -1.57915688     -1.78896323      4.61745800
  C     -1.04658647     -1.02897507      6.55660744
  H     -1.01331432     -2.03930447      6.96852494
  H     -0.26189543     -0.44277136      7.03373395
  H     -2.01075949     -0.58977588      6.81287876
  P      4.31238598     -0.96758166     -0.39862522
  C      5.22132084     -0.58963046     -1.99233270
  H      5.31153678      0.49790844     -2.07524388
  H      6.23298475     -1.00398687     -1.95164715
  C      4.52267997     -1.11223928     -3.24392092
  H      5.14939087     -0.94622740     -4.12171968
  H      4.30787981     -2.17793339     -3.16210865
  H      3.58319181     -0.57748456     -3.38272552
  C      4.84808070     -2.75780489     -0.18386183
  H      4.20218596     -3.36354501     -0.82709464
  H      5.87428902     -2.90307329     -0.53433756
  C      4.72920136     -3.26555677      1.25225353
  H      4.84552400     -4.35024865      1.27682134
  H      5.49595820     -2.82247283      1.88836865
  H      3.75160639     -3.01022726      1.66887927
  C      5.46297475     -0.08881226      0.80451776
  H      5.12181962     -0.33106830      1.81631098
  H      5.29150657      0.98525967      0.67844379
  C      6.96464107     -0.35984358      0.70521743
  H      7.47999313      0.16671040      1.51065258
  H      7.18458702     -1.42298562      0.79859247
  H      7.36588732     -0.00456699     -0.24361540
  P     -4.16421043      0.16831102     -0.43637786
  C     -5.08355844     -1.46653294     -0.43960766
  H     -4.63237081     -2.08836875      0.34015806
  H     -6.12878471     -1.30707753     -0.15838238
  C     -5.04838849     -2.22442745     -1.76472904
  H     -5.48364031     -3.21688162     -1.63621651
  H     -5.61203785     -1.69576001     -2.53389683
  H     -4.01775125     -2.33953907     -2.10746495
  C     -5.09079405      1.04235946     -1.82476258
  H     -4.80369908      0.56804111     -2.76799237
  H     -6.17102149      0.90866974     -1.71765619
  C     -4.76214162      2.53128930     -1.91593102
  H     -5.25213771      2.97072100     -2.78632227
  H     -5.09450647      3.06435311     -1.02460588
  H     -3.68284699      2.67315752     -2.01797279
  C     -4.95988536      0.93784419      1.08289668
  H     -4.42305727      1.86831618      1.29498440
  H     -4.73833351      0.26164558      1.91556818
  C     -6.46084235      1.22624782      1.06702488
  H     -6.76521502      1.59251798      2.04925890
  H     -6.70878404      1.98928909      0.32987827
  H     -7.03934988      0.32939861      0.84536754
  P     -0.24906982      0.53548981     -4.32988434
  C     -1.97911672      0.90592339     -4.95881223
  H     -2.38941998      1.70312389     -4.33281837
  H     -1.93052752      1.29103126     -5.98209282
  C     -2.93403338     -0.28674160     -4.93185906
  H     -3.95350008      0.04931983     -5.12904092
  H     -2.66313237     -1.02232125     -5.68986310
  H     -2.90983245     -0.77735889     -3.95725797
  C      0.22688513     -0.74443932     -5.63724135
  H     -0.42962870     -1.60993941     -5.50327150
  H      0.04652316     -0.36000360     -6.64481900
  C      1.67211892     -1.21875288     -5.51422621
  H      1.88661192     -1.97615943     -6.26998658
  H      2.37022067     -0.39119289     -5.64536486
  H      1.83498744     -1.65895729     -4.52759944
  C      0.62709779      2.07863558     -4.94175838
  H      1.63014282      2.07570006     -4.50215172
  H      0.10135860      2.92802583     -4.49268291
  C      0.74411729      2.30550010     -6.44829397
  H      1.18988576      3.28505319     -6.63071030
  H      1.38177556      1.55209112     -6.91017627
  H     -0.23155061      2.28071307     -6.93402037
  P     -0.18253700     -4.10947501      1.06403229
  C      1.34026508     -5.20730071      1.01492238
  H      2.12653446     -4.70387132      1.58438519
  H      1.13973555     -6.15950617      1.51499837
  C      1.85036099     -5.49207505     -0.39681695
  H      2.81746959     -5.99536395     -0.34999947
  H      1.15401214     -6.13151037     -0.94058754
  H      1.96828983     -4.56130865     -0.95731243
  C     -1.41918918     -5.31444431      0.29868802
  H     -1.12844080     -5.47331420     -0.74456620
  H     -1.37684267     -6.28864085      0.79327545
  C     -2.85048714     -4.78333941      0.32390434
  H     -3.52663938     -5.49534972     -0.15207015
  H     -3.18913199     -4.61136660      1.34620586
  H     -2.90459885     -3.83754428     -0.21807248
  C     -0.59709024     -4.25606148      2.88681832
  H     -1.43632994     -3.58033274      3.08011845
  H      0.25890513     -3.84743753      3.43332641
  C     -0.93676582     -5.63403512      3.45330724
  H     -1.06901230     -5.55333339      4.53387321
  H     -1.86319470     -6.01831357      3.02719697
  H     -0.14085396     -6.35376192      3.26192742

