#B3LYP/6-31+G(d) OPT FREQ

146, Energy =   -192.73336709 au

0 1
 Co      1.02950203     -1.67696136     -0.87964350
 Co     -0.91522720      2.00662152      0.74430126
 Co     -1.85349561     -1.06275813      0.20788196
 Co      0.62855656     -0.39060308      1.87780109
 Co      1.64727522      1.34553646     -0.74093684
 Co     -0.94712707      0.58819867     -2.14348544
 Te     -0.21753954      2.78866454     -1.44149302
 Te     -1.71293273      0.27738092      2.22739619
 Te     -2.72543059      1.08565098     -0.53992074
 Te      2.65558008     -0.47354179      0.49934673
 Te     -0.13504966     -2.56000063      1.04463127
 Te     -1.09737998     -1.84011660     -1.98634743
 Te      1.38057603      1.92860041      1.58733952
 Te      1.31536461     -0.08703847     -2.69177058
  P      1.10528900     -0.78797958      3.94636262
  C      2.57655776      0.17050777      4.62053262
  H      2.38262836      1.23304610      4.43883345
  H      2.66874209      0.03437909      5.70177360
  C      3.90621979     -0.20278694      3.96606952
  H      4.69116656      0.47736521      4.30134090
  H      4.19648696     -1.22134709      4.22642625
  H      3.83173241     -0.13662532      2.87772488
  C      1.60309079     -2.50879364      4.51703967
  H      2.40102158     -2.85829211      3.85347576
  H      2.02252179     -2.47161960      5.52693233
  C      0.46379778     -3.52513808      4.47440015
  H      0.83554759     -4.51544004      4.74341383
  H     -0.33538835     -3.25442159      5.16506027
  H      0.04785040     -3.57407213      3.46438728
  C     -0.17836682     -0.33206000      5.23797349
  H     -1.10469586     -0.84472101      4.95987618
  H     -0.38399223      0.73579258      5.10841806
  C      0.12165700     -0.60192315      6.71289068
  H     -0.72892587     -0.27905544      7.31636207
  H      0.28491930     -1.66359674      6.89698628
  H      1.00175894     -0.05240812      7.04702068
  P     -2.49536204      0.39486291     -3.61499676
  C     -2.10541008     -0.58901800     -5.17483421
  H     -2.09488644     -1.64796833     -4.89908979
  H     -2.89094614     -0.44668595     -5.92225823
  C     -0.76130171     -0.23504978     -5.80640626
  H     -0.56337505     -0.89089052     -6.65591905
  H     -0.75535085      0.79750120     -6.15794847
  H      0.04590890     -0.35533271     -5.07979530
  C     -3.08046221      1.98655236     -4.44986210
  H     -2.27976217      2.33689011     -5.10893814
  H     -3.94995612      1.78478433     -5.08252282
  C     -3.41912214      3.10136157     -3.46391486
  H     -3.75954830      3.98883609     -4.00003510
  H     -4.20296239      2.78777134     -2.77323406
  H     -2.53502885      3.36704631     -2.87888220
  C     -4.15033477     -0.36060240     -3.16504047
  H     -4.69256759      0.38725127     -2.57983658
  H     -3.95511821     -1.19702678     -2.48732176
  C     -5.05224549     -0.85079638     -4.29728015
  H     -6.01280797     -1.15991345     -3.88094051
  H     -5.23656146     -0.06452520     -5.02981739
  H     -4.61256760     -1.70769804     -4.80732781
  P      2.71352368      2.61169214     -2.10844312
  C      2.17678171      3.49563609     -3.67211258
  H      1.50248054      4.30180014     -3.36989859
  H      3.05618972      3.95713932     -4.13198437
  C      1.47051083      2.65014323     -4.72693348
  H      1.29581906      3.24772672     -5.62371028
  H      2.06710965      1.77892960     -4.99573775
  H      0.50921260      2.30376914     -4.34730257
  C      4.35686144      1.92395069     -2.74342399
  H      4.11314422      1.11250900     -3.43623030
  H      4.90611670      2.67968382     -3.31185917
  C      5.25096040      1.37363085     -1.63496760
  H      6.11089397      0.85812150     -2.06563900
  H      5.61408102      2.17654817     -0.99214934
  H      4.69703712      0.66419330     -1.01425154
  C      3.29155339      4.12921400     -1.14091770
  H      3.67656448      3.77403753     -0.17924724
  H      2.39041593      4.70870947     -0.91360996
  C      4.32810972      5.05586155     -1.77596400
  H      4.53914196      5.88138358     -1.09345375
  H      5.26237557      4.52980073     -1.97043310
  H      3.96342198      5.47511686     -2.71342573
  P     -1.05782231      3.72976842      2.00649800
  C     -2.81948799      4.41312354      2.06357014
  H     -3.45322171      3.67942762      2.57286171
  H     -2.85957745      5.33887436      2.64433007
  C     -3.38965559      4.67746011      0.67088223
  H     -4.41866282      5.03321642      0.74819939
  H     -2.80034787      5.43020848      0.14507082
  H     -3.38391482      3.75833758      0.07931780
  C     -0.16083802      5.32326290      1.56766513
  H     -0.16950256      5.39351777      0.47477606
  H     -0.71736634      6.18568061      1.94652812
  C      1.28542920      5.41826127      2.04925432
  H      1.77617251      6.27569415      1.58593064
  H      1.33141889      5.53638364      3.13154785
  H      1.83492214      4.51476251      1.78214277
  C     -0.72942059      3.56070969      3.84205626
  H      0.33975981      3.36328407      3.96417120
  H     -1.24768708      2.65352864      4.17147068
  C     -1.13557133      4.71925985      4.75258894
  H     -0.78408331      4.52208957      5.76700823
  H     -0.70001905      5.66031797      4.41717161
  H     -2.21915841      4.83086291      4.78485765
  P     -3.33253709     -2.51584910      0.75098078
  C     -3.28965595     -4.26929387      0.08322161
  H     -2.29771355     -4.67615236      0.30505892
  H     -4.01981509     -4.88933892      0.61163323
  C     -3.54757734     -4.38336305     -1.41741026
  H     -3.41071340     -5.41637326     -1.74132993
  H     -4.56282940     -4.07296173     -1.66638860
  H     -2.84733033     -3.75162780     -1.96968316
  C     -5.14787491     -2.11299315      0.43765043
  H     -5.29596092     -2.04660928     -0.64481007
  H     -5.79716718     -2.91548439      0.79849313
  C     -5.57024431     -0.78524283      1.06338339
  H     -6.60839601     -0.56336690      0.81112326
  H     -5.47436314     -0.81340308      2.14936229
  H     -4.94167511      0.02477600      0.68340643
  C     -3.34962167     -2.90456966      2.58791991
  H     -3.26795048     -1.95061293      3.11988209
  H     -2.42173573     -3.44771105      2.79593638
  C     -4.52609314     -3.69299562      3.16229171
  H     -4.33893842     -3.89511577      4.21855225
  H     -5.45507645     -3.12856126      3.08569770
  H     -4.65682048     -4.64770255      2.65276368
  P      2.56610812     -3.17541642     -0.83392645
  C      4.23895458     -2.87580655     -1.63659731
  H      4.73337123     -2.08170083     -1.06895671
  H      4.86613025     -3.76897148     -1.56160039
  C      4.15350830     -2.45698633     -3.10335542
  H      5.13913371     -2.15819490     -3.46385858
  H      3.79340840     -3.27930342     -3.72253727
  H      3.46886817     -1.61361914     -3.22241798
  C      2.07909231     -4.75035153     -1.75804990
  H      1.93699200     -4.48603969     -2.81076904
  H      2.88177186     -5.49175857     -1.72105049
  C      0.78280360     -5.36685931     -1.23637730
  H      0.52986516     -6.25711074     -1.81462384
  H      0.87649259     -5.64788454     -0.18655321
  H     -0.03678242     -4.65057300     -1.32548887
  C      3.14379755     -3.86040735      0.81346012
  H      2.25269021     -4.01594423      1.43002905
  H      3.71896010     -3.06474408      1.29814397
  C      3.97439544     -5.14346000      0.81834264
  H      4.28070739     -5.36535183      1.84245607
  H      3.39701105     -5.99039706      0.44682987
  H      4.87352641     -5.04104589      0.20988222

