#B3LYP/6-31+G(d) OPT FREQ

146, Energy =   -192.66171775 au

0 1
 Co     -0.95410347     -2.27846474      0.51152451
 Co     -0.94862529      1.59460230     -0.26734900
 Co     -3.10227878     -0.51681329     -0.08687274
 Co     -0.81237534     -0.05748944      2.60476693
 Co      0.80573794     -0.33274959      0.19313450
 Co     -0.37240957     -0.68215111     -2.37775731
 Te      0.96685551      1.23950424     -1.64582071
 Te     -2.54355505      1.23167911      1.57361927
 Te     -2.33099103      0.70433928     -2.07888175
 Te      0.82383647     -1.86864092      2.06847829
 Te     -2.64658229     -1.57394393      2.08783918
 Te     -2.10464429     -2.18097730     -1.63297758
 Te      0.58100427      1.65543353      1.57958311
 Te      0.82269954     -2.41040965     -1.10704515
  P     -5.22093663     -0.84852170     -0.20288602
  C     -5.88948891     -2.41670578      0.57923562
  H     -5.75133492     -2.33742231      1.66218652
  H     -6.96141537     -2.52326607      0.38849338
  C     -5.16927380     -3.67247308      0.08808742
  H     -5.58746337     -4.55638016      0.57223790
  H     -5.27226250     -3.78625389     -0.99169086
  H     -4.10606258     -3.61721917      0.32774362
  C     -6.11025770     -0.95061356     -1.85382200
  H     -5.65516658     -1.77025158     -2.41969986
  H     -7.16482573     -1.20705611     -1.71513908
  C     -6.00129636      0.33012311     -2.67944138
  H     -6.45158528      0.18236641     -3.66233508
  H     -6.51075690      1.15862534     -2.18602021
  H     -4.95180766      0.60299428     -2.81571351
  C     -6.23990161      0.43843171      0.70752282
  H     -6.01540686      1.41130160      0.25725808
  H     -5.85053484      0.48331132      1.73049901
  C     -7.75697871      0.25553050      0.76001663
  H     -8.20225430      1.08630110      1.31035659
  H     -8.18788677      0.24054216     -0.24080098
  H     -8.02407903     -0.67108952      1.26760301
  P      0.34221388     -0.22301662      4.41724612
  C      0.34212514     -1.76867036      5.48414697
  H      1.07153240     -2.46915333      5.06829580
  H      0.64260222     -1.54322934      6.51106870
  C     -1.02956483     -2.44240813      5.50175547
  H     -0.97897386     -3.38729425      6.04508617
  H     -1.76960575     -1.80372130      5.98606989
  H     -1.36953256     -2.64440722      4.48378417
  C     -0.33912091      0.98571220      5.71669325
  H     -1.28144423      0.58009130      6.09772845
  H      0.34096545      1.07192847      6.56889901
  C     -0.60514721      2.37194919      5.13327687
  H     -1.05243640      3.02167213      5.88739060
  H      0.31979883      2.83206285      4.78260623
  H     -1.28995720      2.29852495      4.28431988
  C      2.14894319      0.26971116      4.45862057
  H      2.19295592      1.34948995      4.28665662
  H      2.63984721     -0.20121834      3.60228839
  C      2.94213671     -0.06233883      5.72185023
  H      3.94504980      0.36033398      5.63876376
  H      2.46932218      0.35484773      6.61132507
  H      3.03701084     -1.14046084      5.85124977
  P      2.39530313     -3.77253626      0.81067997
  C      3.84411157     -4.33509374     -0.30144777
  H      4.59303386     -3.53852744     -0.24701949
  H      4.30827654     -5.23914085      0.10212234
  C      3.49476373     -4.57830903     -1.76556329
  H      4.40627482     -4.72406442     -2.34825716
  H      2.86785775     -5.46357127     -1.87803696
  H      2.95343530     -3.72429287     -2.17496300
  C      1.30663443     -5.28913799      0.62997392
  H      1.09168311     -5.40323793     -0.43584167
  H      1.84819822     -6.18386801      0.94697766
  C     -0.02222408     -5.21867419      1.37539972
  H     -0.60611169     -6.12186336      1.19174517
  H      0.13313473     -5.11101585      2.44890064
  H     -0.60863328     -4.34916921      1.02626346
  C      3.27404642     -4.14283512      2.46469383
  H      2.62483631     -3.75042199      3.25262632
  H      4.17540833     -3.51992829      2.47376200
  C      3.66228338     -5.57699205      2.82571755
  H      4.23558852     -5.57282926      3.75504046
  H      2.77667657     -6.19408719      2.97865153
  H      4.27726412     -6.03777815      2.05233804
  P     -1.85031203      3.54547486     -0.37852713
  C     -3.68282446      3.76297165     -0.71838943
  H     -4.19974214      2.92815910     -0.23430109
  H     -4.04943923      4.67755326     -0.24383175
  C     -4.06944497      3.78952329     -2.19615608
  H     -5.15519857      3.73557610     -2.29316298
  H     -3.72512021      4.70491297     -2.67736872
  H     -3.63423776      2.93418892     -2.71613016
  C     -1.12442168      4.73938550     -1.64246355
  H     -1.25540124      4.29585707     -2.63445206
  H     -1.66347978      5.69077978     -1.64108408
  C      0.36617458      4.99365251     -1.42237392
  H      0.76198385      5.61757757     -2.22516249
  H      0.54717919      5.49593471     -0.47191695
  H      0.91263491      4.04750501     -1.42031836
  C     -1.70422160      4.55650239      1.20065312
  H     -0.69366867      4.40210985      1.59375620
  H     -2.38331701      4.09094084      1.92287767
  C     -1.99340178      6.05601567      1.13919487
  H     -1.96457429      6.46859805      2.14924020
  H     -1.24835157      6.57761396      0.53938973
  H     -2.97878490      6.25691451      0.71835080
  P      2.90687954      2.41856776      0.11492533
  C      4.15985525      3.23283317     -1.07956510
  H      4.00904187      4.31478736     -1.02044336
  H      5.18885929      3.02863118     -0.77055250
  C      3.98966577      2.80329562     -2.53391647
  H      4.67249331      3.36516420     -3.17425711
  H      4.20343456      1.74087276     -2.65350085
  H      2.96858160      2.98330532     -2.87195805
  C      3.72750541      0.73400565      0.24220564
  H      2.92164950      0.01643774      0.49306732
  H      4.06550530      0.46453546     -0.76299666
  C      4.88257621      0.52305737      1.21570163
  H      5.20524428     -0.51940322      1.17171389
  H      5.73445905      1.15272214      0.95836997
  H      4.58146664      0.73972454      2.24060027
  C      3.46454230      3.30361920      1.71244169
  H      3.33403219      2.58933306      2.53003558
  H      2.70770138      4.07832561      1.87669876
  C      4.84433518      3.95203709      1.82107144
  H      4.97190466      4.36006790      2.82621805
  H      5.64387808      3.23387250      1.64354126
  H      4.94973883      4.77075644      1.10905683
  P      0.96682258     -0.61932305     -4.05536527
  C      0.99228843      0.90044221     -5.15824835
  H      1.57114103      1.67691806     -4.65022662
  H      1.48052133      0.69113869     -6.11410408
  C     -0.41533566      1.43432398     -5.42216351
  H     -0.36455243      2.37553167     -5.97182616
  H     -0.99749710      0.72196367     -6.00840845
  H     -0.94050096      1.60946820     -4.48008643
  C      0.61033546     -1.91393016     -5.39042386
  H     -0.30233838     -1.61709084     -5.91653000
  H      1.41279333     -1.94537935     -6.13310462
  C      0.40311498     -3.30906725     -4.80371136
  H      0.12273715     -4.01246861     -5.58937775
  H      1.31444838     -3.66986951     -4.32512282
  H     -0.39031339     -3.29016769     -4.05265864
  C      2.79567514     -0.92720481     -3.79511684
  H      2.91567546     -1.99347459     -3.58179263
  H      3.09730574     -0.39705346     -2.88714927
  C      3.74590950     -0.54299750     -4.92872945
  H      4.75863797     -0.85976699     -4.67319886
  H      3.46397711     -1.02486512     -5.86525848
  H      3.75575841      0.53602176     -5.08195027

