#B3LYP/6-31+G(d) OPT FREQ

146, Energy =   -192.66081946 au

0 1
 Co     -0.65067695     -0.99604770      0.98576734
 Co      1.35529796      1.51027569     -0.39452972
 Co     -1.61770978      2.20564154     -0.04762817
 Co      0.85082714      1.15882068      2.13094109
 Co      2.30757107     -0.70207838     -0.20319679
 Co     -0.40280011      0.42866958     -1.92180080
 Te      1.94111193      0.26938460     -2.41697915
 Te      0.34184857      3.26384169      0.94269718
 Te     -0.08290968      2.84970626     -1.83792600
 Te      1.52551585     -1.16830783      2.05493844
 Te     -1.58027573      1.00675854      2.06686048
 Te     -2.31471306     -0.12662582     -0.56534178
 Te      3.11040843      1.12644366      1.20775389
 Te      0.30887239     -1.79639183     -1.20459982
  P     -1.21920719     -2.63124052      2.34743857
  C     -0.34670236     -4.29485282      2.37102794
  H      0.70335203     -4.10962117      2.61809627
  H     -0.75227653     -4.95652586      3.14163789
  C     -0.42309924     -5.00299604      1.01902739
  H      0.23285982     -5.87498221      1.00887141
  H     -1.44115079     -5.33597329      0.81462193
  H     -0.11617597     -4.32826932      0.21744602
  C     -3.00021008     -3.25485353      2.25711387
  H     -3.16595501     -3.62749370      1.24086569
  H     -3.17293617     -4.09472146      2.93586133
  C     -4.01511175     -2.14770819      2.53730815
  H     -5.02793388     -2.50609010      2.34671999
  H     -3.95663159     -1.81379418      3.57364313
  H     -3.82463511     -1.28818830      1.89183010
  C     -1.09559723     -2.20119395      4.17142379
  H     -1.57116228     -1.22336962      4.30366998
  H     -0.03195231     -2.05380551      4.38356647
  C     -1.67078874     -3.17118060      5.20356964
  H     -1.48705855     -2.77943448      6.20581416
  H     -2.74656365     -3.29190894      5.07961204
  H     -1.20119069     -4.15211501      5.13146303
  P      2.49083965      2.72045700     -3.35613165
  C      1.49370855      3.15797137     -4.87895234
  H      0.76039240      3.91736182     -4.59675007
  H      2.13873772      3.58156593     -5.65394651
  C      0.75463193      1.94692996     -5.44346688
  H      0.18060398      2.23262853     -6.32613078
  H      1.45349746      1.15728949     -5.72094329
  H      0.06764624      1.54980843     -4.69427928
  C      4.10185447      2.23739391     -4.21546423
  H      3.87968910      1.37161989     -4.84708438
  H      4.48414392      3.02378747     -4.87188354
  C      5.18140755      1.84008438     -3.20818823
  H      6.07208548      1.48347504     -3.72782218
  H      5.46229264      2.68813365     -2.58258845
  H      4.81553990      1.04110808     -2.56074792
  C      2.95365178      4.43490186     -2.70506090
  H      3.65561058      4.28168548     -1.87953161
  H      2.04214539      4.84951314     -2.26543092
  C      3.54465826      5.44379436     -3.68891796
  H      3.71620201      6.39052535     -3.17334512
  H      4.49764636      5.09808265     -4.08868334
  H      2.86399170      5.62641714     -4.52050022
  P     -3.54497857      2.98473323     -0.67972293
  C     -5.03377778      2.82289062      0.46210326
  H     -4.90362632      3.52325718      1.29344971
  H     -5.95178119      3.10771783     -0.06049940
  C     -5.20671195      1.41621916      1.03283857
  H     -6.10163072      1.36989636      1.65584036
  H     -5.29881099      0.67924063      0.23418747
  H     -4.34338097      1.14911435      1.64569681
  C     -4.34002604      2.35926535     -2.26210691
  H     -4.42905094      1.27202026     -2.16929799
  H     -5.35309001      2.75456781     -2.38200975
  C     -3.52162830      2.67494143     -3.51334270
  H     -3.96825795      2.19267266     -4.38452791
  H     -3.48320789      3.74924690     -3.69658691
  H     -2.49774673      2.31237227     -3.40260196
  C     -3.59481781      4.84772245     -0.96356510
  H     -2.82578029      5.08132895     -1.70752830
  H     -3.26630491      5.31925545     -0.03077170
  C     -4.91577178      5.48594864     -1.39664753
  H     -4.77299880      6.55975992     -1.53173793
  H     -5.26597908      5.06844316     -2.34038922
  H     -5.68972047      5.33825000     -0.64363779
  P      3.69403246     -2.36238179     -0.21019160
  C      4.97860689     -2.46092435      1.15547268
  H      4.43991605     -2.53091303      2.10652536
  H      5.58206272     -3.36781271      1.05543048
  C      5.90991880     -1.25066263      1.20487584
  H      6.57805786     -1.32908632      2.06411988
  H      6.51470332     -1.18534323      0.29964862
  H      5.32840402     -0.32934043      1.30036751
  C      4.81002255     -2.63504427     -1.70006082
  H      5.43297462     -1.74224286     -1.81652269
  H      5.48882776     -3.47796802     -1.54147409
  C      4.02098441     -2.84618088     -2.99167322
  H      4.70292207     -2.92822979     -3.83966620
  H      3.42018556     -3.75483432     -2.94064087
  H      3.35107632     -2.00051112     -3.16710005
  C      2.91696998     -4.05554824     -0.00724817
  H      2.10916807     -4.12739597     -0.74297032
  H      2.43552112     -4.05617117      0.97643088
  C      3.80280383     -5.29589129     -0.12223874
  H      3.19771207     -6.18624714      0.05844776
  H      4.23913336     -5.37884175     -1.11734154
  H      4.60939965     -5.27932485      0.61052995
  P     -2.40133017     -2.52078410     -2.11103175
  C     -1.89315394     -2.11873066     -3.87549694
  H     -0.87325033     -2.48488984     -4.02332132
  H     -2.54163681     -2.64349632     -4.58226918
  C     -1.93340778     -0.63084309     -4.19980009
  H     -1.56007805     -0.44843729     -5.20827237
  H     -2.94856089     -0.24137872     -4.12795655
  H     -1.29694324     -0.06874464     -3.48559703
  C     -4.27745949     -2.45109236     -2.40975146
  H     -4.50937117     -1.44524426     -2.77332193
  H     -4.61472593     -3.15497604     -3.17521144
  C     -5.05468961     -2.68685995     -1.11647808
  H     -6.12691739     -2.57501338     -1.28653607
  H     -4.86892392     -3.68865559     -0.72661001
  H     -4.74698792     -1.95928211     -0.36329038
  C     -2.13815531     -4.40231037     -2.17444370
  H     -2.64034809     -4.81182586     -1.29232829
  H     -1.06601923     -4.55936361     -2.02200705
  C     -2.58239973     -5.19171140     -3.40643718
  H     -2.40947712     -6.25619132     -3.23575422
  H     -3.64378062     -5.04971588     -3.61029433
  H     -2.01610178     -4.89366139     -4.28880456
  P      0.98148672      1.93683523      4.13303396
  C      1.32062232      3.77214602      4.35030142
  H      0.46414384      4.32178301      3.94703433
  H      1.40766490      4.03137218      5.40936779
  C      2.58271709      4.23601103      3.62396905
  H      2.70355872      5.31459774      3.73789608
  H      3.46957980      3.74371169      4.02408024
  H      2.51064141      4.00866570      2.55872262
  C      2.36602414      1.28004294      5.22585646
  H      3.30652717      1.42768613      4.68476473
  H      2.43695830      1.85876016      6.15169005
  C      2.23382181     -0.20375764      5.56390922
  H      3.09814649     -0.53377178      6.14283267
  H      1.33274747     -0.39618297      6.14715366
  H      2.18450957     -0.79709467      4.64758567
  C     -0.50495095      1.75881603      5.26530122
  H     -0.78286910      0.69994539      5.26623082
  H     -1.33323757      2.28034848      4.77430518
  C     -0.39433424      2.24043350      6.71200475
  H     -1.34094523      2.05996806      7.22472141
  H      0.38915547      1.70548865      7.24810924
  H     -0.18097730      3.30806039      6.75925656

