#B3LYP/6-31+G(d) OPT FREQ

146, Energy =   -192.72729594 au

0 1
 Co      0.03248233     -1.99684856      1.35792826
 Co      0.05532697      1.41267384     -1.47711531
 Co     -1.68597245      0.77030560      1.04944718
 Co      1.32366909      0.77815049      1.52884702
 Co      1.85091691     -0.98769240     -0.96834547
 Co     -1.40549016     -1.25426033     -1.23918855
 Te      0.32821947     -0.63325885     -2.81730975
 Te     -0.07077841      2.57408703      0.65837604
 Te     -2.33776412      1.00651531     -1.26525268
 Te      2.38205082     -1.41068448      1.35835182
 Te     -0.45010793     -0.20690791      2.90146601
 Te     -2.33684373     -1.56460306      0.99679092
 Te      2.32578760      1.38266357     -0.58004493
 Te      0.36751227     -2.88987369     -0.90111085
  P     -0.16167665     -3.99179164      2.10353367
  C      1.36508036     -4.89707695      2.72384433
  H      1.76342587     -4.34579945      3.58185492
  H      1.09610015     -5.89740136      3.07535604
  C      2.46349677     -5.02009254      1.67038208
  H      3.31030720     -5.57782814      2.07359030
  H      2.09892611     -5.53328007      0.77985605
  H      2.81103329     -4.02474808      1.38315432
  C     -0.93508080     -5.40295375      1.13874579
  H     -0.39350360     -5.47069768      0.19031303
  H     -0.78834798     -6.35159910      1.66455050
  C     -2.42159189     -5.22606943      0.83602121
  H     -2.75856431     -6.01003422      0.15560440
  H     -3.01741836     -5.28113380      1.74735542
  H     -2.60483570     -4.25702614      0.37098813
  C     -1.19802349     -4.00577723      3.67490157
  H     -2.19017202     -3.62998833      3.40306045
  H     -0.76685413     -3.25735076      4.34883586
  C     -1.34997234     -5.32451316      4.43286840
  H     -2.02186652     -5.17876649      5.28074094
  H     -1.77013108     -6.10241909      3.79576337
  H     -0.39006511     -5.67037073      4.81588428
  P     -3.13051855     -1.79796949     -2.38641097
  C     -3.24926439     -1.03656268     -4.10397859
  H     -2.22887473     -0.76680946     -4.39544428
  H     -3.59631836     -1.77902417     -4.82731266
  C     -4.13561705      0.20235774     -4.21810116
  H     -3.97696288      0.68142603     -5.18570067
  H     -5.19076499     -0.05829676     -4.13362536
  H     -3.88868175      0.91599532     -3.42909228
  C     -4.90363406     -1.60689631     -1.80928308
  H     -5.03106366     -0.56730333     -1.49204115
  H     -5.58556604     -1.77466353     -2.64812264
  C     -5.30814134     -2.52178146     -0.65532017
  H     -6.31304941     -2.26572709     -0.31536465
  H     -5.30046150     -3.56928924     -0.95648412
  H     -4.61735957     -2.40045387      0.18166407
  C     -3.09185447     -3.62778212     -2.86847843
  H     -3.00853488     -4.20509445     -1.94238267
  H     -2.15190141     -3.78755491     -3.40831806
  C     -4.24215592     -4.19965499     -3.69863505
  H     -4.05696510     -5.25866222     -3.88788407
  H     -5.19294248     -4.10951025     -3.17456980
  H     -4.33038099     -3.69494967     -4.66051763
  P     -2.88763339      2.15845446      2.15091275
  C     -4.21295209      1.37692353      3.24133172
  H     -3.70528624      0.80863617      4.02776067
  H     -4.81050781      2.14955383      3.73376653
  C     -5.14827349      0.43775579      2.48170613
  H     -5.84958840     -0.03163888      3.17351220
  H     -5.71762272      0.97874881      1.72494412
  H     -4.57268246     -0.34778892      1.98580690
  C     -3.97513353      3.38888832      1.24365762
  H     -4.67253720      2.81777145      0.62264737
  H     -4.57635959      3.96698734      1.95113785
  C     -3.19386107      4.33691738      0.33868555
  H     -3.86881219      5.05562834     -0.12909528
  H     -2.43335009      4.88218569      0.89811783
  H     -2.69807718      3.76571874     -0.44685297
  C     -2.06606678      3.23997931      3.44415535
  H     -1.21790100      3.73496075      2.96136784
  H     -1.64287171      2.55996390      4.19101015
  C     -2.90838213      4.29457434      4.16139941
  H     -2.29611040      4.78670170      4.91937303
  H     -3.26220879      5.05522955      3.46581626
  H     -3.77019590      3.84929481      4.65820394
  P     -0.01097660      2.73081413     -3.17725485
  C     -0.97022571      2.34583449     -4.74324883
  H     -1.94019129      1.94387028     -4.43723549
  H     -1.16908340      3.26736703     -5.29809778
  C     -0.29592157      1.34988012     -5.68398253
  H     -0.97948760      1.07952700     -6.49052460
  H      0.60770824      1.77427603     -6.12223936
  H     -0.02365246      0.44222701     -5.14086291
  C      1.57245656      3.37843729     -3.95768298
  H      2.12785096      2.51770665     -4.34288659
  H      1.34088771      4.01673159     -4.81560219
  C      2.47568338      4.13728983     -2.98702992
  H      3.40389272      4.42008811     -3.48643310
  H      1.99104113      5.04142824     -2.61800362
  H      2.72199729      3.50497437     -2.13035616
  C     -0.88099444      4.33081688     -2.70403923
  H     -0.48871095      4.63837666     -1.72865660
  H     -1.93095902      4.06515513     -2.53965228
  C     -0.82262321      5.52267172     -3.66000686
  H     -1.41706667      6.34064999     -3.24876404
  H      0.19886175      5.87830458     -3.78948363
  H     -1.22736533      5.26922830     -4.63971478
  P      2.22812309      1.17036438      3.43688083
  C      3.78752580      2.23829036      3.30710113
  H      3.48523638      3.24643909      3.00557344
  H      4.27404359      2.32235522      4.28289055
  C      4.80084942      1.70809407      2.29576153
  H      5.67303757      2.36297468      2.25779479
  H      5.13194641      0.70334081      2.56170211
  H      4.35186989      1.67190728      1.30083378
  C      2.95257181     -0.15268029      4.55094131
  H      3.69004874     -0.69986016      3.95620794
  H      3.49245261      0.32357407      5.37523474
  C      1.96157723     -1.16046984      5.12649241
  H      2.46870024     -1.81223118      5.84045849
  H      1.13824370     -0.65911075      5.63487551
  H      1.54535676     -1.77718801      4.33027126
  C      1.27791866      2.22277418      4.67341524
  H      0.39404782      1.64725253      4.96397542
  H      0.90921501      3.09614482      4.12461050
  C      1.99084905      2.70573552      5.93644152
  H      1.28986841      3.27780801      6.54728606
  H      2.35361404      1.86779485      6.53132839
  H      2.83411409      3.35203963      5.69430732
  P      3.82911901     -0.97234220     -1.79578021
  C      4.32525641      0.11061677     -3.24811621
  H      4.14482168      1.14836068     -2.95225815
  H      5.39785392      0.01230065     -3.44172099
  C      3.56504436     -0.17575231     -4.54207523
  H      3.77137805      0.60540665     -5.27574468
  H      3.86425733     -1.13458014     -4.96674932
  H      2.48923420     -0.20446460     -4.35689270
  C      4.33850089     -2.64983022     -2.49842360
  H      3.69914941     -2.85604654     -3.36260874
  H      5.36953858     -2.63126041     -2.86140965
  C      4.16193037     -3.78334168     -1.49016044
  H      4.44756323     -4.73604274     -1.93905668
  H      4.77423954     -3.62006292     -0.60251988
  H      3.11559076     -3.84572471     -1.18128996
  C      5.25814125     -0.57521244     -0.64835640
  H      5.00618089     -0.98141545      0.33673367
  H      5.27144504      0.51383847     -0.53932104
  C      6.65798186     -1.04905233     -1.03682217
  H      7.38258591     -0.64681941     -0.32639426
  H      6.72618366     -2.13631473     -1.01050095
  H      6.93438467     -0.70683547     -2.03440667

