#B3LYP/6-31+G(d) OPT FREQ

146, Energy =   -192.54515970 au

0 1
 Co     -0.06449188     -0.94368191     -1.54309588
 Co     -0.70002387      1.80734944     -0.37261356
 Co     -2.46356569     -0.03281888     -0.75320991
 Co     -0.36759165     -0.53514847      1.30385069
 Co      1.51669915      0.42132578     -0.08369832
 Co     -0.18526060      1.29325795     -2.86380125
 Te      1.40941893      2.51183201     -1.35757752
 Te     -2.19871686      1.07609260      1.42887892
 Te     -2.39488773      2.04112469     -2.10224720
 Te      1.19724648     -2.01964905      0.23792987
 Te     -1.53151180     -2.21615780     -0.07604900
 Te     -1.88922227     -0.53464373     -3.06746842
 Te      0.48326702      1.68267803      1.74367378
 Te      1.93993041      0.08740895     -2.47765219
  P     -3.05218540      1.63216915     -5.74711026
  C     -3.40156119      0.88444399     -7.44287286
  H     -3.55787849     -0.19056951     -7.30681456
  H     -4.31666088      1.28961186     -7.88506012
  C     -2.24945998      1.08693971     -8.42879342
  H     -2.49804371      0.63608033     -9.39118947
  H     -2.05351243      2.14792861     -8.58902893
  H     -1.33649716      0.61938669     -8.05784044
  C     -3.31226964      3.43789562     -6.21906839
  H     -2.45628639      3.73655281     -6.83259738
  H     -4.20711427      3.57838828     -6.83396912
  C     -3.37932005      4.36517182     -5.00533530
  H     -3.43816294      5.40601165     -5.32795113
  H     -4.25411711      4.14585131     -4.39250411
  H     -2.49397150      4.24719618     -4.37840686
  C     -4.70636428      1.23636025     -4.95412759
  H     -4.63007931      1.52532983     -3.89998324
  H     -4.79647784      0.14516285     -4.96712146
  C     -5.98521655      1.84047054     -5.53814143
  H     -6.84964344      1.43241241     -5.01135171
  H     -5.99884699      2.92371212     -5.41994893
  H     -6.09170188      1.60601775     -6.59760751
  P      0.32421452     -4.72522331     -4.32839802
  C      2.04817142     -4.96118492     -3.60265762
  H      2.72685484     -5.24400900     -4.41308901
  H      2.43235213     -4.03731315     -3.15995547
  C      2.06588779     -6.06456666     -2.54365379
  H      3.08497509     -6.22838545     -2.18930809
  H      1.44693240     -5.79238320     -1.68759959
  H      1.68790895     -7.00053269     -2.95729750
  C     -0.37741700     -3.69549057     -2.92959898
  H     -0.11171173     -4.20027656     -1.99751978
  H      0.10778639     -2.70537342     -2.87516546
  C      0.56543083      1.65294919     -5.79395671
  H      0.25576694      1.28914930     -4.79601478
  H     -0.33952668      1.84928974     -6.37000146
  H      1.13117007      0.85985698     -6.28285091
  C      0.69969712     -3.37567142     -5.58856646
  H     -0.21886259     -2.80134809     -5.73987292
  H      0.90385341     -3.88128619     -6.53815210
  C      1.84099369     -2.39871410     -5.30487049
  H      2.80513667     -2.90720743     -5.29533945
  H      1.86818910     -1.63247343     -6.08227371
  H      1.70543833     -1.89742938     -4.34534160
  P      4.91116283      0.57740805     -1.42571180
  C      6.61308981      1.32915789     -1.03714733
  H      6.44599662      2.29650520     -0.55285147
  H      7.20444825      0.71966441     -0.34688027
  C      7.41596322      1.56029669     -2.31888359
  H      8.34942862      2.07889884     -2.09319511
  H      7.65826522      0.61294320     -2.80209794
  H      6.84408458      2.16727566     -3.02306944
  C      5.52226071     -1.19367577     -1.62078659
  H      6.10756472     -1.21662470     -2.54594759
  H      6.20909728     -1.45951036     -0.81088646
  C      4.43490884     -2.26174424     -1.72288620
  H      4.88861818     -3.24839297     -1.83641281
  H      3.80458684     -2.27452430     -0.83216579
  H      3.79473524     -2.07396298     -2.58489993
  C      4.27960895      0.56936572      0.34571159
  H      3.19436510      0.29696471      0.32476919
  H      4.32348135      1.60952646      0.68682360
  C      4.97054106     -0.31588877      1.38180325
  H      4.51743846     -0.15071339      2.36109055
  H      4.86118088     -1.37116662      1.13301844
  H      6.03316021     -0.08273695      1.45457498
  P     -2.79087803      4.84137858     -1.49488856
  C     -4.36230319      4.37128515     -0.59062726
  H     -4.16900905      3.47449493      0.00268487
  H     -4.68089524      5.15877729      0.09813602
  C     -5.49338308      4.07445388     -1.57549133
  H     -6.40300594      3.79715426     -1.04013068
  H     -5.70980096      4.94654080     -2.19389835
  H     -5.21081695      3.24844125     -2.23013278
  C     -3.14435035      6.71013339     -1.62296940
  H     -4.06786496      6.83110849     -2.19720120
  H     -3.31020321      7.17304432     -0.64562588
  C     -2.01596572      7.43929769     -2.35169717
  H     -2.27402796      8.49017722     -2.49255146
  H     -1.08721448      7.38763152     -1.78205910
  H     -1.84203837      6.99103416     -3.33136415
  C     -1.57760053      4.88283513     -0.06770424
  H     -0.76350791      5.55690510     -0.35253308
  H     -1.12859886      3.87286868      0.00030103
  C     -2.08571452      5.26909121      1.32092958
  H     -1.24044024      5.33936208      2.00807481
  H     -2.59767784      6.23143870      1.30975104
  H     -2.77094664      4.51260066      1.70490764
  P     -2.23017103     -3.41274102     -2.84849521
  C      1.39942196      2.91946989     -5.65093794
  H      2.31626858      2.68910961     -5.09731923
  H      1.68827762      3.28165661     -6.64277834
  C      0.61937535      4.00381508     -4.91288816
  H      1.25031662      4.87187851     -4.72043938
  H     -0.24476204      4.32101930     -5.49749540
  H      0.26296459      3.61315086     -3.95169278
  C     -2.67716875     -3.73595225     -4.66173065
  H     -2.36634703     -2.84646942     -5.21886930
  H     -2.12542677     -4.58651642     -5.07542514
  C     -4.17062900     -3.95138924     -4.89438039
  H     -4.37596476     -4.02009430     -5.96438008
  H     -4.51356854     -4.87116334     -4.42004234
  H     -4.74767211     -3.11955929     -4.48928716
  C     -2.74877035     -5.07608349     -2.08943043
  H     -3.84329379     -5.09120947     -2.07571841
  H     -2.43008849     -5.03621376     -1.04277465
  C     -2.24368817     -6.37456742     -2.71710406
  H     -2.59169523     -7.22686844     -2.12972728
  H     -2.61118795     -6.48935256     -3.73672127
  H     -1.15332704     -6.39979228     -2.74139164
  P     -4.41587478     -0.68072992     -0.04647956
  C     -5.35524759     -1.87674888     -1.15790483
  H     -4.74822844     -2.77913091     -1.28853401
  H     -6.29917268     -2.18269000     -0.69926087
  C     -5.64530916     -1.27392278     -2.52984948
  H     -6.20114064     -1.98296274     -3.14476566
  H     -6.23618198     -0.36175888     -2.44176314
  H     -4.70845196     -1.03202578     -3.03378058
  C     -5.79928989      0.58257659      0.17515056
  H     -5.76397854      1.25154585     -0.69041664
  H     -6.77304927      0.08389961      0.14712300
  C     -5.71547553      1.43099272      1.44229918
  H     -6.45388645      2.23345864      1.39790259
  H     -5.91035359      0.83226728      2.33208219
  H     -4.72335569      1.87424403      1.54443456
  C     -4.51535884     -1.62041744      1.57091804
  H     -4.12229341     -0.96402440      2.35344130
  H     -3.81262278     -2.45636567      1.49539362
  C     -5.87645772     -2.16241230      2.00818530
  H     -5.78272722     -2.60643995      3.00075759
  H     -6.62559265     -1.37267119      2.05782167
  H     -6.23126724     -2.93405627      1.32521757

