146
Energy =   -192.73682085 au
 Co      0.47213227     -1.97288254     -0.45252334
 Co     -0.78505718      2.10933890      0.38145158
 Co     -1.87806376     -0.25737523     -1.27566046
 Co     -1.41353598     -0.51052647      1.81406394
 Co      1.55921211      0.13189368      1.46997346
 Co      1.24310435      0.84796126     -1.50740002
 Te      1.62938815      2.32322992      0.42836331
 Te     -2.91775217      0.93049057      0.56307233
 Te     -0.92513867      1.82183456     -2.05050455
 Te      0.48865822     -2.01934631      1.97795524
 Te     -1.85822182     -2.23280074      0.19051409
 Te      0.03643581     -0.91712095     -2.62656430
 Te     -0.13826629      1.43718042      2.61825982
 Te      2.63339733     -0.85541457     -0.48894272
  P      2.75262425      2.12135795     -2.36177187
  C      2.53928700      3.97479703     -2.57112161
  H      2.39876525      4.39938620     -1.57265222
  H      3.44949466      4.41761472     -2.98669967
  C      1.35522107      4.37312210     -3.45096696
  H      1.19511913      5.45110291     -3.39367705
  H      1.53621036      4.10597993     -4.49271259
  H      0.44473586      3.86770274     -3.12180518
  C      3.16959314      1.66946964     -4.14883576
  H      2.28065057      1.86128617     -4.75793072
  H      3.97018692      2.30017998     -4.54433816
  C      3.54599030      0.19659456     -4.29620188
  H      3.72349815     -0.04593691     -5.34512455
  H      4.44685325     -0.03824263     -3.72806956
  H      2.73328871     -0.43293893     -3.92723764
  C      4.44979777      2.10167712     -1.56275232
  H      4.65717585      1.06627880     -1.27337235
  H      4.35947495      2.66814493     -0.63029470
  C      5.63958511      2.63851667     -2.35735754
  H      6.52501902      2.64034420     -1.71895348
  H      5.84916759      2.01244414     -3.22430769
  H      5.46563514      3.65888892     -2.69913268
  P      3.32437201     -0.40744187      2.56188644
  C      4.16762247     -2.08130526      2.50411496
  H      4.16300709     -2.40518428      1.45893208
  H      5.21576160     -1.97637489      2.79966914
  C      3.52857900     -3.16798956      3.36619457
  H      3.98168069     -4.13426152      3.13796245
  H      3.67035453     -2.96138097      4.42724155
  H      2.45722715     -3.23040669      3.16450237
  C      3.31147514     -0.14186920      4.42940146
  H      2.57756278     -0.83306600      4.85570909
  H      4.28133695     -0.39446555      4.86724165
  C      2.92079486      1.27970495      4.82920473
  H      2.84000938      1.35449497      5.91487503
  H      3.66021238      2.00391303      4.48579882
  H      1.95407583      1.54257865      4.39111371
  C      4.77662554      0.66897267      2.03372100
  H      4.39376247      1.68459312      1.88626830
  H      5.07311499      0.30950710      1.04242553
  C      6.01293810      0.73209068      2.93015282
  H      6.78445250      1.32629753      2.43693673
  H      5.78358341      1.20158555      3.88621080
  H      6.41994814     -0.26095429      3.12106388
  P      1.38785118     -3.66047625     -1.40478231
  C      2.57311978     -3.54068835     -2.85399199
  H      3.18971182     -2.65178041     -2.68756116
  H      3.24873562     -4.40110603     -2.85271198
  C      1.91823792     -3.44281165     -4.23020408
  H      2.67477273     -3.21680374     -4.98357964
  H      1.43003384     -4.37927840     -4.50076847
  H      1.17260127     -2.64551221     -4.23806796
  C      0.29474664     -5.07105231     -2.01051145
  H     -0.32333232     -4.68518075     -2.82678016
  H      0.89895101     -5.88361348     -2.42375869
  C     -0.62966297     -5.61821829     -0.92448777
  H     -1.31008918     -6.35784250     -1.34960275
  H     -0.06103540     -6.09049440     -0.12286384
  H     -1.22410126     -4.80908114     -0.49176269
  C      2.51084148     -4.55412311     -0.18518863
  H      1.99322549     -4.57786215      0.77956733
  H      3.38285331     -3.90598604     -0.04696940
  C      2.99223552     -5.96506373     -0.52270501
  H      3.69847435     -6.29549011      0.24121292
  H      2.16248212     -6.67079987     -0.54441900
  H      3.49779933     -5.99574890     -1.48795457
  P     -2.30431507     -0.31290903      3.76252139
  C     -1.32050303     -0.46415392      5.35494216
  H     -0.59737450      0.35681894      5.36750106
  H     -1.97676737     -0.33288683      6.22063059
  C     -0.57097042     -1.78698114      5.50573932
  H      0.09101284     -1.74290810      6.37222807
  H     -1.26666780     -2.61543713      5.64417399
  H      0.03083439     -1.99169302      4.61751338
  C     -3.61456470     -1.63207588      4.10375612
  H     -3.11233755     -2.60437781      4.12576018
  H     -4.07671114     -1.48935881      5.08420306
  C     -4.69256896     -1.66971250      3.02243498
  H     -5.40808361     -2.46723285      3.22900836
  H     -5.23215816     -0.72327358      2.97159290
  H     -4.23658944     -1.85693986      2.04775936
  C     -3.24836718      1.26164534      4.14431328
  H     -3.80173240      1.53106153      3.23893867
  H     -2.49842266      2.04561577      4.29075053
  C     -4.21269709      1.26895645      5.32971280
  H     -4.60847952      2.27759356      5.46235991
  H     -5.05270806      0.59618489      5.15855869
  H     -3.71474394      0.97564515      6.25392482
  P     -3.57618485     -1.28878986     -2.09952759
  C     -3.47633380     -2.99614570     -2.87419251
  H     -3.08946749     -3.67722539     -2.11060672
  H     -4.47679184     -3.34823661     -3.14343479
  C     -2.58013820     -3.07387086     -4.10932667
  H     -2.43063797     -4.11632019     -4.39561986
  H     -3.02948468     -2.54670546     -4.95157430
  H     -1.60561662     -2.62515375     -3.90552325
  C     -4.37453694     -0.36413118     -3.54154611
  H     -3.65606400     -0.34876608     -4.36704539
  H     -5.26660423     -0.88211517     -3.90346215
  C     -4.71948674      1.07840344     -3.17860305
  H     -5.13040209      1.59967222     -4.04461037
  H     -5.45056387      1.11790124     -2.37027629
  H     -3.81789146      1.60212396     -2.85380071
  C     -5.04487534     -1.56383588     -0.96473359
  H     -5.12113012     -0.68494823     -0.31602177
  H     -4.77745906     -2.40263751     -0.31407690
  C     -6.41180648     -1.83797541     -1.59038805
  H     -7.12571175     -2.07894961     -0.80057537
  H     -6.78217039     -0.96410114     -2.12575019
  H     -6.37403960     -2.67968813     -2.28218215
  P     -1.98707191      3.87467967      0.20811806
  C     -3.48427319      4.09131280     -0.90000276
  H     -4.00961068      3.13187127     -0.91729091
  H     -4.16960102      4.81823380     -0.45446661
  C     -3.18588431      4.52480750     -2.33392690
  H     -4.09340674      4.45450332     -2.93600860
  H     -2.82891719      5.55428138     -2.36777381
  H     -2.42653466      3.87674326     -2.77498717
  C     -1.07694764      5.48176427     -0.18601536
  H     -0.67739528      5.39573174     -1.20114575
  H     -1.76554989      6.33126974     -0.18318971
  C      0.08538795      5.75980196      0.76504218
  H      0.63359553      6.64468058      0.43750623
  H     -0.26796895      5.92796525      1.78285291
  H      0.77438280      4.91084942      0.77701772
  C     -2.78095693      4.29646828      1.86508586
  H     -2.04537922      4.07687224      2.64635055
  H     -3.59396674      3.57552900      2.00059810
  C     -3.32684375      5.70732733      2.08277022
  H     -3.83173449      5.75201589      3.04957931
  H     -2.52525265      6.44520980      2.08529882
  H     -4.04667314      5.98122521      1.31130669
