#B3LYP/6-31+G(d) OPT FREQ

146, Energy =   -192.73210581 au

0 1
 Co     -0.73817090     -1.78969657      0.91966595
 Co      0.54282862      1.84266441     -1.12250736
 Co     -1.99274222      0.12918622     -1.07423845
 Co     -0.80990632      1.44494636      1.56495612
 Co      1.79328139     -0.09583731      1.20253306
 Co      0.94395661     -1.16871291     -1.58657286
 Te      2.59621068      0.55447253     -0.99003414
 Te     -1.73779947      2.44507870     -0.44432947
 Te     -0.38942259      0.40276664     -2.86630891
 Te     -0.01727485     -0.46818842      2.82381562
 Te     -2.55290839     -0.20314161      1.28878864
 Te     -1.24372332     -2.15640583     -1.44891538
 Te      1.43756510      2.31586123      1.07136139
 Te      1.57339816     -2.38590867      0.40917151
  P     -0.97172337      3.16631803      2.83930340
  C     -2.61819625      3.22741392      3.76836388
  H     -2.62089438      2.42631979      4.51470129
  H     -2.71988620      4.17413393      4.30613327
  C     -3.82632339      3.04836545      2.85167845
  H     -4.75023753      3.11514409      3.42866854
  H     -3.84430284      3.81446311      2.07525828
  H     -3.78863783      2.06877557      2.37008685
  C     -0.98525037      4.91537127      2.15381069
  H     -1.48587927      4.86383953      1.18102201
  H     -1.59542581      5.56207872      2.79207095
  C      0.38411597      5.56483647      1.96307825
  H      0.27895098      6.48456992      1.38503336
  H      0.84086050      5.81126689      2.92177827
  H      1.05529984      4.89065626      1.42845335
  C      0.19021615      3.33553656      4.30172546
  H      1.18510230      3.54707319      3.89888323
  H      0.25348532      2.35075277      4.77653335
  C     -0.14833845      4.37370766      5.37193989
  H      0.67164611      4.43407848      6.08992791
  H     -0.29389765      5.36198588      4.93635280
  H     -1.05304018      4.09723694      5.91283954
  P      2.51420901     -1.81138347     -2.89824091
  C      3.19877579     -0.71916340     -4.26528841
  H      3.54423549      0.20778114     -3.79494030
  H      4.07265704     -1.19313001     -4.72355832
  C      2.19476689     -0.37428427     -5.36532658
  H      2.60507618      0.40312602     -6.01278133
  H      1.96899015     -1.24919219     -5.97638213
  H      1.26214943     -0.00651440     -4.93123329
  C      2.03238850     -3.31913704     -3.93012027
  H      1.21474831     -3.01984356     -4.59443506
  H      2.85872920     -3.64597735     -4.56725245
  C      1.54954384     -4.48351239     -3.06737344
  H      1.23988335     -5.31845582     -3.69980129
  H      2.33617551     -4.82989553     -2.39495840
  H      0.69440702     -4.16951910     -2.46349777
  C      4.13329810     -2.36848810     -2.13231328
  H      3.88986967     -2.88629511     -1.19791735
  H      4.66931306     -1.45600426     -1.84951335
  C      5.06487095     -3.25220899     -2.96057707
  H      5.99756058     -3.40222741     -2.41236065
  H      4.62020983     -4.23068451     -3.14639860
  H      5.30498505     -2.79218537     -3.92013677
  P     -1.19743195     -3.80529542      1.47631592
  C     -0.43021142     -4.36535427      3.10291415
  H     -0.45272357     -3.50812781      3.78412136
  H     -1.03030414     -5.15607895      3.56064711
  C      1.00963462     -4.86179403      2.97909892
  H      1.46261189     -4.93933652      3.96893219
  H      1.04494563     -5.84442664      2.50738138
  H      1.60226602     -4.17135034      2.37327814
  C     -0.79872153     -5.31290834      0.43451222
  H      0.22234279     -5.18036125      0.06243429
  H     -0.79658320     -6.20745011      1.06479019
  C     -1.72546263     -5.55349111     -0.75511965
  H     -1.31976645     -6.34734145     -1.38450627
  H     -2.72277486     -5.84663785     -0.42742256
  H     -1.81133589     -4.64493747     -1.35527045
  C     -3.02344875     -4.08282185      1.85255720
  H     -3.55986538     -3.94648756      0.90813064
  H     -3.34575587     -3.26194683      2.50232090
  C     -3.46118067     -5.41025387      2.47358989
  H     -4.55146659     -5.46312328      2.47835487
  H     -3.08141624     -6.26084143      1.90810590
  H     -3.11491410     -5.49699364      3.50319252
  P      0.20524848      3.37457356     -2.58871696
  C     -1.32025724      3.58126491     -3.66216078
  H     -2.14045308      3.07063299     -3.14969930
  H     -1.59535971      4.63854554     -3.71155811
  C     -1.22033115      3.03546204     -5.08530992
  H     -2.20626410      3.05586384     -5.55336385
  H     -0.53892550      3.63114087     -5.69269464
  H     -0.86832621      2.00325859     -5.06923967
  C      1.57205088      3.53225924     -3.88402400
  H      1.54149883      2.63933570     -4.51524267
  H      1.40264210      4.39431937     -4.53463351
  C      2.96036292      3.63355752     -3.25531411
  H      3.72632412      3.62085871     -4.03252164
  H      3.06601573      4.55424240     -2.68031745
  H      3.13426486      2.78773193     -2.58417516
  C      0.27408064      5.09581071     -1.80797024
  H      1.07160500      5.08671937     -1.05805510
  H     -0.66446476      5.21487550     -1.25676781
  C      0.47509506      6.30147782     -2.72534473
  H      0.36421847      7.21965753     -2.14549965
  H      1.47157028      6.29799261     -3.16621995
  H     -0.25928937      6.31771134     -3.53096232
  P      3.10502769     -0.27077687      2.89462624
  C      4.91395307     -0.00447033      2.41753636
  H      5.02928643      1.03034136      2.07902864
  H      5.57033362     -0.14080483      3.28119999
  C      5.36397492     -0.94173888      1.29864579
  H      6.40150740     -0.73753271      1.02918056
  H      5.28322095     -1.98501279      1.60674909
  H      4.74065903     -0.79213724      0.41456926
  C      3.32007967     -1.85138481      3.88594038
  H      3.25544650     -2.68196733      3.17597999
  H      4.32213444     -1.88704215      4.32453230
  C      2.28864922     -2.07061572      4.99083717
  H      2.38369110     -3.08076230      5.39274596
  H      2.42928920     -1.36148378      5.80662043
  H      1.27832274     -1.94115512      4.59867198
  C      2.96370230      1.01796012      4.24749849
  H      2.00935945      0.84906539      4.75570891
  H      2.87789463      1.98785692      3.74605330
  C      4.07797519      1.10370483      5.29066914
  H      3.79678997      1.82755564      6.05805304
  H      4.24828463      0.14237220      5.77562969
  H      5.01328428      1.43477557      4.83952277
  P     -3.98661688     -0.42954894     -1.62274729
  C     -4.24763503     -1.03763695     -3.38572868
  H     -3.73029480     -1.99746421     -3.48324637
  H     -5.31030643     -1.21606903     -3.57311913
  C     -3.71810623     -0.08052534     -4.45152077
  H     -3.85039562     -0.51577128     -5.44339501
  H     -4.24619807      0.87334285     -4.41874576
  H     -2.65398543      0.10995984     -4.29473634
  C     -5.32481967      0.89478753     -1.58857680
  H     -5.08441278      1.63273059     -2.36069950
  H     -6.29872200      0.47022294     -1.84759854
  C     -5.41806731      1.61524226     -0.24635937
  H     -6.22768212      2.34671383     -0.26373511
  H     -5.59987631      0.91087705      0.56626941
  H     -4.48175705      2.14081090     -0.04543813
  C     -4.82197747     -1.83406226     -0.70517681
  H     -4.82134293     -1.57103907      0.35693022
  H     -4.16323486     -2.70278967     -0.80847925
  C     -6.23807014     -2.24247982     -1.11013427
  H     -6.56263836     -3.07333819     -0.48096864
  H     -6.94166336     -1.42116478     -0.97514489
  H     -6.27815904     -2.56887596     -2.14902703

