146
Energy =   -192.66999699 au
 Co      0.35008659     -2.40402077     -0.13968216
 Co     -0.44966994      1.26323877     -1.41007491
 Co     -2.41364488     -0.97685678      0.18823518
 Co      0.19609960      0.05615673      0.86321368
 Co      2.36480022      0.01142853     -1.05413442
 Co     -0.38882739     -1.44102879     -2.72635505
 Te      1.14317332      0.43706958     -3.08550840
 Te     -1.84220022      1.36629877      0.53985196
 Te     -2.37536630     -0.12730922     -2.05176168
 Te      2.18342323     -1.33937531      0.98789373
 Te     -0.84198360     -1.88989863      1.88250617
 Te     -1.75896859     -2.83428278     -1.23253119
 Te      1.35716519      1.99159924     -0.01396370
 Te      1.87502521     -2.14382188     -2.02012724
  P     -3.70068092     -1.26000114      1.89420525
  C     -4.01374258     -2.93147972      2.68942137
  H     -3.18965733     -3.14209852      3.37638545
  H     -4.94103987     -2.93013827      3.26895773
  C     -4.07710583     -4.04674140      1.64622025
  H     -4.16815042     -5.01729699      2.13649972
  H     -4.93341034     -3.91147116      0.98403266
  H     -3.17181939     -4.04957444      1.03541121
  C     -5.49972206     -0.84193034      1.45387197
  H     -5.91039071     -1.66982030      0.86778373
  H     -6.11510283     -0.74875686      2.35334790
  C     -5.60194609      0.43944180      0.62866830
  H     -6.63705092      0.62069006      0.33475186
  H     -5.24724626      1.29956835      1.19837579
  H     -4.99109617      0.35600689     -0.27413543
  C     -3.48875767     -0.15339497      3.39091719
  H     -3.79259874      0.85470122      3.09177136
  H     -2.41961631     -0.09982366      3.61503803
  C     -4.23757623     -0.53773910      4.66649544
  H     -4.08756280      0.23742299      5.42015422
  H     -5.30852556     -0.63581776      4.48610421
  H     -3.86453245     -1.47969190      5.06903868
  P     -0.31312056      3.25668203      1.98680154
  C     -1.88667770      3.79937361      2.91394172
  H     -2.43990264      2.90273701      3.20470399
  H     -1.66937711      4.36778085      3.82189200
  C     -2.77709347      4.63249974      1.99357055
  H     -3.70466927      4.90424067      2.50044602
  H     -2.27093544      5.54776151      1.68311021
  H     -3.02735295      4.05572224      1.10060157
  C      0.70697996      4.79976444      2.48277996
  H      0.18266566      5.67254595      2.08208328
  H      0.73420375      4.91123443      3.57112932
  C      2.13317309      4.79975929      1.94147388
  H      2.63136577      5.73937972      2.18791214
  H      2.71212556      3.98074258      2.36976573
  H      2.13113299      4.67999643      0.85739287
  C      0.41953605      2.05003462      3.22407837
  H      1.50199047      2.20841856      3.22860816
  H      0.26328135      1.03535621      2.80908789
  C     -0.08281176      2.07586055      4.66481338
  H      0.48966212      1.36192336      5.26063047
  H      0.03856477      3.06508406      5.10755672
  H     -1.13451884      1.79497485      4.72031717
  P     -0.63409247     -2.77492531     -4.39002058
  C      0.55948291     -2.65616453     -5.83957665
  H      1.54699137     -2.97202970     -5.48764698
  H      0.26268080     -3.34058537     -6.63953040
  C      0.67172985     -1.24509907     -6.41476839
  H      1.41766767     -1.22387459     -7.21096642
  H     -0.28267986     -0.91431139     -6.82639513
  H      0.97477486     -0.54010478     -5.63661751
  C     -2.24910709     -2.79404596     -5.35112634
  H     -2.30028316     -1.87413817     -5.94226194
  H     -2.26338428     -3.62770652     -6.05937448
  C     -3.48570489     -2.86614024     -4.45791392
  H     -4.38884883     -2.90348415     -5.06922658
  H     -3.45755440     -3.75047693     -3.82025133
  H     -3.53814354     -1.98537308     -3.81396258
  C     -0.43261005     -4.58746311     -3.95746440
  H     -1.26176849     -4.84848843     -3.29207418
  H      0.47761662     -4.66936172     -3.35324471
  C     -0.36237245     -5.60618985     -5.09499001
  H     -0.32103273     -6.61205269     -4.67332666
  H     -1.23855871     -5.54440171     -5.74054529
  H      0.52947719     -5.45694233     -5.70337129
  P     -0.84782452      2.90238869     -2.73770004
  C     -1.99277574      2.67444505     -4.20536692
  H     -2.96750306      2.35971172     -3.81964150
  H     -2.13554575      3.62832909     -4.72176844
  C     -1.51326813      1.63687380     -5.21868530
  H     -2.20821069      1.58938649     -6.05891909
  H     -0.52344593      1.88909302     -5.59926882
  H     -1.46319943      0.65017565     -4.75590030
  C      0.52699704      3.85621519     -3.58641662
  H      1.11836504      3.12768346     -4.14962402
  H      0.11165288      4.56405009     -4.31035190
  C      1.45529880      4.60214671     -2.62950655
  H      2.31840460      4.98879009     -3.17367384
  H      0.94105303      5.43938142     -2.15684594
  H      1.81012589      3.93362609     -1.84223904
  C     -1.75654870      4.28340152     -1.83679342
  H     -1.13355098      4.57000042     -0.98180888
  H     -2.66303126      3.83983993     -1.41092717
  C     -2.13930586      5.54092932     -2.61715588
  H     -2.60898153      6.25542763     -1.93879987
  H     -1.26444577      6.01666737     -3.05942762
  H     -2.84817155      5.31012550     -3.41219448
  P      4.16154477      0.78997044     -0.17973162
  C      4.79286763      2.38488759     -0.96390075
  H      4.19638732      3.21228890     -0.56918406
  H      5.83900572      2.57622407     -0.71076409
  C      4.64252928      2.35284745     -2.48447402
  H      4.84399936      3.33862167     -2.90635814
  H      5.33639254      1.63789839     -2.92862414
  H      3.62626107      2.05705160     -2.76041185
  C      5.71796363     -0.25190973     -0.46479809
  H      5.98788833     -0.17514685     -1.52258967
  H      6.55622343      0.15347810      0.10961718
  C      5.53387493     -1.72724104     -0.11879474
  H      6.45373973     -2.27934468     -0.31903993
  H      5.27465536     -1.85158919      0.93319218
  H      4.73018349     -2.15914459     -0.71870052
  C      4.36584931      1.15663313      1.64523461
  H      4.55899739      0.20435932      2.14733374
  H      3.40484514      1.51450984      2.02445987
  C      5.45309702      2.15411775      2.04232712
  H      5.51182538      2.20703913      3.13094654
  H      6.42920626      1.85114910      1.66247098
  H      5.22638174      3.15142813      1.66578002
  P      1.38463769     -2.61552445      3.32739455
  C      1.92544222     -4.28942881      2.67464347
  H      2.92508161     -4.16762337      2.24807670
  H      2.00172472     -5.00171710      3.50076440
  C      1.01254367     -4.88210207      1.60554662
  H      1.43440139     -5.81186780      1.22153814
  H      0.02010964     -5.08485365      2.00817572
  H      0.89985651     -4.17507731      0.76004625
  C      0.32027547     -3.22004158      4.78372026
  H     -0.48935495     -3.82211249      4.36121024
  H      0.87335206     -3.85895698      5.47651808
  C     -0.28839784     -2.04327617      5.54362113
  H     -0.98544854     -2.39789044      6.30468407
  H      0.48674630     -1.45155570      6.03228993
  H     -0.83134160     -1.39553417      4.85254945
  C      2.96115488     -2.13731206      4.27999816
  H      2.71164512     -1.25090683      4.87184353
  H      3.68160938     -1.81008387      3.52443439
  C      3.62586573     -3.17113043      5.18864060
  H      4.51034405     -2.72975524      5.65233916
  H      2.95347511     -3.49448151      5.98314874
  H      3.94038165     -4.04753230      4.62183894
