146
Energy =   -192.66725299 au
 Co      0.37002923     -1.60340622     -1.37902707
 Co      0.63315554      2.06292200      0.30628189
 Co     -2.09321575      0.73053053     -1.12660594
 Co     -0.52718421     -0.22133590      0.62196212
 Co      2.53884794     -0.11275166      0.51296487
 Co      1.09800134      1.12993501     -2.39215970
 Te      2.80277771      1.93399063     -0.80568659
 Te     -1.68699205      1.89455320      0.97986699
 Te     -0.68674702      2.65415720     -1.65369330
 Te      1.07019578     -2.03068660      0.89188932
 Te     -1.93603867     -1.66962780     -0.72204833
 Te     -0.86188881     -0.24064013     -2.99810075
 Te      0.98494217      0.66265652      2.26994000
 Te      2.62149727     -0.68673751     -1.82858932
  P      1.20570799      2.51685023     -4.03986725
  C     -0.21692735      2.96952771     -5.17633124
  H     -1.01440816      3.37963717     -4.54881458
  H      0.08712176      3.75756927     -5.87198073
  C     -0.77285403      1.79451791     -5.97938009
  H     -1.67082961      2.10300062     -6.51742334
  H     -0.04182247      1.43456008     -6.70400306
  H     -1.03407036      0.96818410     -5.31420851
  C      2.48560076      2.03503960     -5.34382958
  H      2.13030688      1.12547290     -5.83845127
  H      2.57860000      2.80302869     -6.11648621
  C      3.85513585      1.74580903     -4.73155480
  H      4.54949066      1.41027147     -5.50358752
  H      4.26878311      2.63597000     -4.25607005
  H      3.77200003      0.96112871     -3.97510110
  C      1.77701245      4.23858788     -3.55994872
  H      2.54790404      4.11958772     -2.79091472
  H      0.92575604      4.71884877     -3.06615545
  C      2.30805092      5.16443226     -4.65386822
  H      2.51630605      6.14592458     -4.22405996
  H      3.23360071      4.77903687     -5.08091388
  H      1.58181907      5.29241214     -5.45668651
  P     -4.23314318      0.98923969     -1.35419218
  C     -5.16068283     -0.02483593     -2.63640380
  H     -5.12097606     -1.07512199     -2.32977275
  H     -6.21533125      0.26153690     -2.68499726
  C     -4.54370254      0.10452214     -4.02970461
  H     -5.06061527     -0.55172655     -4.73183776
  H     -4.61901313      1.12970389     -4.39482880
  H     -3.48714189     -0.17372920     -4.00684924
  C     -4.96947779      2.67848388     -1.72878682
  H     -4.68901565      2.94368219     -2.75330373
  H     -6.06250693      2.65560684     -1.69481599
  C     -4.45165451      3.76486770     -0.78703357
  H     -4.85158847      4.73780377     -1.07742902
  H     -4.74741010      3.56194265      0.24298233
  H     -3.36121114      3.81202207     -0.82550759
  C     -5.17984596      0.50360653      0.19230999
  H     -4.83222061      1.15434228      1.00154278
  H     -4.85277417     -0.50812424      0.45734905
  C     -6.70790204      0.53139817      0.15669827
  H     -7.09650481      0.24714868      1.13626696
  H     -7.08132434      1.52741670     -0.08083723
  H     -7.09724360     -0.17090642     -0.58019045
  P     -0.80004018      2.31807781      3.62728291
  C     -2.45300825      2.66508448      4.51505738
  H     -2.62566646      1.83214660      5.20309381
  H     -2.38212158      3.57676526      5.11447124
  C     -3.65370063      2.77988834      3.58254158
  H     -4.56463808      2.94068016      4.16231959
  H     -3.53123164      3.61189842      2.88892517
  H     -3.77044301      1.86765359      2.99709914
  C     -0.36881132      4.09264047      3.19507289
  H     -1.20518892      4.50235492      2.62201925
  H     -0.27985753      4.68669399      4.10896051
  C      0.90794520      4.25808214      2.37696929
  H      1.04628895      5.30347940      2.09797105
  H      1.78003657      3.92850517      2.94202723
  H      0.85239674      3.65401718      1.44688709
  C      0.27427812      2.11518711      5.18789989
  H      1.30594518      2.28990438      4.86650486
  H      0.22128462      1.05725870      5.46538820
  C     -0.01061983      2.96503370      6.42603647
  H      0.76638195      2.79013116      7.17298447
  H     -0.01675879      4.02879622      6.18639328
  H     -0.97100639      2.70350617      6.87031525
  P      1.24173466     -3.32886773     -2.34132589
  C      2.05183408     -3.22639717     -4.03361626
  H      3.04926116     -2.79745757     -3.90140612
  H      2.17663891     -4.22834082     -4.45484826
  C      1.28175029     -2.36657516     -5.03421402
  H      1.78492138     -2.37959662     -6.00258848
  H      0.26369957     -2.73505674     -5.16606488
  H      1.22717808     -1.33407291     -4.68711423
  C      0.02626175     -4.72713000     -2.71104236
  H     -0.76136213     -4.31293718     -3.34914407
  H      0.50648439     -5.52903234     -3.27902879
  C     -0.61653605     -5.31021220     -1.45433236
  H     -1.40008534     -6.01927722     -1.72635984
  H      0.12260019     -5.83021877     -0.84478968
  H     -1.06480161     -4.51770856     -0.85039362
  C      2.59215200     -4.24161555     -1.41771800
  H      2.19629636     -4.48807985     -0.42762760
  H      3.40099780     -3.52312425     -1.24950049
  C      3.17523421     -5.50493732     -2.05018326
  H      3.92694234     -5.92749946     -1.38106912
  H      2.40478963     -6.25811829     -2.21403175
  H      3.65470187     -5.28442801     -3.00365116
  P     -1.54298260     -3.28089038      1.63908770
  C     -0.57081181     -4.25460763      2.95488405
  H      0.12512665     -3.56515834      3.43935381
  H     -1.22075325     -4.67692905      3.72540990
  C      0.23769212     -5.37177510      2.30000007
  H      0.83710708     -5.89823818      3.04470135
  H     -0.41753224     -6.09287353      1.80960585
  H      0.91094942     -4.94845565      1.55132319
  C     -3.11468945     -4.35733197      1.72969988
  H     -2.82863282     -5.38041447      1.46717045
  H     -3.51946425     -4.38789011      2.74613751
  C     -4.20647022     -3.89655278      0.76664658
  H     -5.05205357     -4.58654436      0.79093476
  H     -4.56650050     -2.90168342      1.03283576
  H     -3.82125850     -3.85191359     -0.25307961
  C     -2.17345246     -1.84626177      2.66974661
  H     -3.17866286     -1.60893651      2.30812193
  H     -1.54802310     -0.97143070      2.41928956
  C     -2.21863497     -1.99223765      4.18878130
  H     -2.67724764     -1.10170886      4.62386576
  H     -2.80817906     -2.85991367      4.48685448
  H     -1.21541752     -2.09208929      4.60345819
  P      4.07521133      0.14875657      1.99537859
  C      5.81141156      0.09254330      1.25652057
  H      5.97558746      1.02446613      0.70614813
  H      6.57838341      0.02935214      2.03341956
  C      5.97642557     -1.08203483      0.29186066
  H      6.94975771     -1.03359999     -0.19897261
  H      5.90259546     -2.03340023      0.82050926
  H      5.19807656     -1.05583715     -0.47571668
  C      4.33141493     -1.11796907      3.36155482
  H      4.67334523     -2.04531907      2.89076801
  H      5.12852342     -0.79304320      4.03699752
  C      3.07608543     -1.42526096      4.17454802
  H      3.29837528     -2.17219727      4.93872851
  H      2.69667054     -0.52748757      4.66302546
  H      2.29106083     -1.81587989      3.52429531
  C      4.17678823      1.75389120      2.95954516
  H      3.36920480      1.73890405      3.69759467
  H      3.93781643      2.56366592      2.26186040
  C      5.48946441      2.08615250      3.66864116
  H      5.36351041      3.00145436      4.24980420
  H      5.78649795      1.28889513      4.35024917
  H      6.29359740      2.24764200      2.95096101
