#B3LYP/6-31+G(d) OPT FREQ

146, Energy =   -192.73307120 au

0 1
 Co      0.58306206     -1.88006882      0.59950416
 Co     -1.18803333      1.75176527     -1.02265613
 Co     -2.14593538     -0.21375159      1.10535799
 Co      0.61976053      0.97901358      1.64032613
 Co      1.57950577      0.46298035     -1.25832772
 Co     -1.16788804     -1.20409808     -1.77617912
 Te     -0.15780564      0.65226777     -2.94581438
 Te     -1.52298881      2.14156533      1.33671979
 Te     -3.05766298      0.15444219     -1.10098618
 Te      2.48553159     -0.37480259      0.82023765
 Te     -0.44147431     -1.00671371      2.62283966
 Te     -1.76136176     -2.43043254      0.24735324
 Te      0.93173075      2.57440464     -0.18961767
 Te      1.18372115     -1.85160429     -1.77194266
  P      1.87467158     -3.40660894      1.37433371
  C      3.50525617     -3.84669767      0.55689109
  H      4.07191288     -2.91628394      0.44882638
  H      4.08529486     -4.50582295      1.20944679
  C      3.37361248     -4.50938853     -0.81243083
  H      4.35971226     -4.62599832     -1.26507310
  H      2.91088189     -5.49331708     -0.73017350
  H      2.76051991     -3.89199093     -1.47359213
  C      1.15740167     -5.14073648      1.58062184
  H      0.93343043     -5.53254581      0.58342992
  H      1.88532191     -5.81974115      2.03302266
  C     -0.13223664     -5.14342737      2.39907937
  H     -0.55061348     -6.15041423      2.43968897
  H      0.04807146     -4.80048451      3.41859373
  H     -0.87018335     -4.48073762      1.93872633
  C      2.49945255     -3.05606113      3.11007707
  H      1.64951086     -2.67831962      3.68777756
  H      3.20203957     -2.22067664      3.02024979
  C      3.16525892     -4.18574129      3.89460502
  H      3.53722374     -3.79173070      4.84222097
  H      2.45684611     -4.98385477      4.11515804
  H      4.00849458     -4.61039010      3.34979327
  P      1.58957993      1.75713828      3.40137073
  C      3.19696781      2.68815977      3.09973153
  H      3.07596416      3.24221648      2.16258466
  H      3.37515431      3.42610178      3.88644960
  C      4.42591146      1.78727368      2.98810334
  H      5.26650379      2.35121760      2.58072842
  H      4.71350491      1.39618206      3.96430948
  H      4.21928434      0.94291430      2.32502229
  C      2.13006165      0.71353424      4.86549878
  H      2.74348466     -0.10443138      4.47401710
  H      2.76988941      1.30148253      5.53048896
  C      0.98529378      0.10818095      5.67471783
  H      1.38461072     -0.55294052      6.44575282
  H      0.38569389      0.88105235      6.15583920
  H      0.33413886     -0.47633844      5.02002461
  C      0.59750146      3.11490139      4.24573554
  H     -0.38812559      2.69894771      4.47587023
  H      0.42477785      3.89033451      3.49133442
  C      1.15875488      3.76733849      5.50992042
  H      0.45111847      4.51579409      5.87140547
  H      1.31044285      3.03381534      6.30109269
  H      2.10792042      4.26587626      5.31434508
  P     -3.46743140      0.15607771      2.74983699
  C     -4.06196659     -1.40555027      3.62536498
  H     -3.20481449     -1.83776037      4.15152219
  H     -4.82090857     -1.16074600      4.37360317
  C     -4.63417286     -2.45302812      2.67186355
  H     -4.89339962     -3.35783046      3.22402152
  H     -5.53158842     -2.08148691      2.17540089
  H     -3.89998810     -2.71307166      1.90504627
  C     -5.14839557      0.95835229      2.46058338
  H     -5.80604261      0.21907251      1.99328159
  H     -5.60728645      1.23703795      3.41372062
  C     -5.07750343      2.18269514      1.55239439
  H     -6.06201929      2.64376128      1.45798305
  H     -4.37928994      2.92255159      1.94593851
  H     -4.73570877      1.88466725      0.55908832
  C     -2.88270586      1.15067991      4.22643641
  H     -2.90106265      2.20255993      3.92725830
  H     -1.83224810      0.89400676      4.39152275
  C     -3.63256284      0.99670488      5.54938122
  H     -3.24401341      1.72115361      6.26751640
  H     -4.70073527      1.17822752      5.42804217
  H     -3.49315402     -0.00090571      5.96539140
  P     -1.46548853     -3.07644964     -2.77838181
  C     -0.67741872     -3.27146172     -4.48193153
  H      0.39917268     -3.39875389     -4.33323948
  H     -1.05511592     -4.17131482     -4.97528705
  C     -0.90548455     -2.07714325     -5.40505181
  H     -0.37141918     -2.22450638     -6.34523991
  H     -1.96616177     -1.95127249     -5.62627876
  H     -0.54006625     -1.15898639     -4.93882928
  C     -3.23861648     -3.51625023     -3.26651359
  H     -3.52800740     -2.87762882     -4.10693533
  H     -3.28369848     -4.55082480     -3.61975846
  C     -4.24966103     -3.32103859     -2.14027486
  H     -5.24988250     -3.59612498     -2.47908611
  H     -3.99223913     -3.93226578     -1.27436339
  H     -4.26469735     -2.27448327     -1.82563324
  C     -0.94691904     -4.69609934     -1.98912390
  H     -1.71885800     -4.95488671     -1.25926128
  H     -0.03444150     -4.50696686     -1.41641599
  C     -0.70787415     -5.89902922     -2.90079727
  H     -0.51514285     -6.78009635     -2.28574952
  H     -1.57664838     -6.10466147     -3.52674363
  H      0.15740254     -5.73919718     -3.54386183
  P      3.25025086      1.61429324     -1.95745125
  C      3.06131789      3.08790498     -3.10437074
  H      2.42687196      3.81793330     -2.59279345
  H      4.03151377      3.56520891     -3.27103511
  C      2.44259710      2.75363700     -4.46077873
  H      2.21855806      3.67328497     -5.00379379
  H      3.12528360      2.15385219     -5.06359689
  H      1.51501279      2.19148629     -4.33007643
  C      4.46242094      0.58806866     -2.97814072
  H      3.94265813      0.25467680     -3.88181479
  H      5.31506878      1.19002103     -3.30382274
  C      4.95687080     -0.64550140     -2.22442436
  H      5.62432029     -1.23199208     -2.85778534
  H      5.49574614     -0.36378044     -1.31905492
  H      4.11013183     -1.27346797     -1.93806414
  C      4.39253786      2.36679450     -0.67648437
  H      4.53671875      1.61061262      0.10047152
  H      3.84005404      3.18829127     -0.20902976
  C      5.76367909      2.87647342     -1.11919311
  H      6.26742203      3.33274721     -0.26501339
  H      6.38839481      2.06147112     -1.48400722
  H      5.67903104      3.62789205     -1.90417805
  P     -2.36356755      2.75756241     -2.50997349
  C     -3.56154041      2.10618888     -3.79630484
  H     -4.43658838      1.72912129     -3.25956571
  H     -3.89305377      2.94360093     -4.41822990
  C     -3.04832070      1.00100522     -4.71357692
  H     -3.79499558      0.77946291     -5.47862564
  H     -2.12091349      1.29640236     -5.20340613
  H     -2.85992110      0.09416002     -4.13899178
  C     -1.42903249      3.98123522     -3.60606392
  H     -0.78237315      3.39096208     -4.26212415
  H     -2.11625159      4.53916635     -4.24820011
  C     -0.56674954      4.96041554     -2.81300034
  H      0.07675819      5.52804337     -3.48712202
  H     -1.18690215      5.66211486     -2.25379346
  H      0.06484753      4.42283719     -2.10046016
  C     -3.56128422      3.91549088     -1.61493184
  H     -3.00793576      4.38824822     -0.79668578
  H     -4.31367465      3.27498263     -1.14395662
  C     -4.27776748      4.99939376     -2.42029213
  H     -4.95023442      5.55138082     -1.76073154
  H     -3.56963383      5.70697252     -2.85049713
  H     -4.87127032      4.56815002     -3.22616385

