#B3LYP/6-31+G(d) OPT FREQ

146, Energy =   -192.72770033 au

0 1
 Co      1.95556917     -1.36037478      0.15688872
 Co     -1.83460675      0.83213404     -0.41799774
 Co     -1.00497910     -2.07770210      0.03186734
 Co      0.05568163      0.13013395      2.04805119
 Co      1.06910994      1.76851299     -0.36076660
 Co      0.34747483     -0.42379392     -2.34746625
 Te     -0.52519003      1.82766761     -2.20423797
 Te     -2.19813403     -0.56893683      1.52434834
 Te     -1.94354546     -1.05512413     -1.96565363
 Te      2.35252541      0.68121456      1.40659935
 Te      0.51643743     -2.26065241      1.89804111
 Te      0.75797828     -2.65231876     -1.54176863
 Te     -0.72494450      2.26219940      1.22655689
 Te      2.54928807      0.24329832     -1.55071072
  P      3.31458061     -2.93956094      0.63131132
  C      5.02147690     -2.80590156     -0.16874576
  H      5.53733289     -1.94762919      0.27411863
  H      5.61545969     -3.69560247      0.05848904
  C      4.97272219     -2.61949230     -1.68269892
  H      5.98421835     -2.54134248     -2.08459712
  H      4.47086046     -3.45923501     -2.16485901
  H      4.43123317     -1.70318256     -1.92782670
  C      2.98591093     -4.73895965      0.22450061
  H      2.81790795     -4.79652087     -0.85528244
  H      3.87453713     -5.33792874      0.44678194
  C      1.78159413     -5.35531841      0.93043925
  H      1.68547716     -6.40616216      0.65139049
  H      1.88285672     -5.29004144      2.01374023
  H      0.86864680     -4.83492821      0.64169868
  C      3.85770962     -3.05304222      2.42678113
  H      2.97766881     -3.35331401      3.00315693
  H      4.10112350     -2.03475197      2.74890821
  C      5.02501041     -3.97266112      2.78481082
  H      5.15908997     -3.97675813      3.86815903
  H      4.83752056     -4.99650356      2.46166885
  H      5.95366383     -3.62827029      2.33046079
  P      1.68232985      3.80861409     -0.17397136
  C      0.57489805      5.24443013     -0.65474964
  H     -0.37059068      5.11785718     -0.11794016
  H      1.01327999      6.18709901     -0.31401060
  C      0.28860827      5.34898061     -2.15113539
  H     -0.48108170      6.10111403     -2.33172176
  H      1.18593380      5.63162728     -2.70235914
  H     -0.06636777      4.38991152     -2.53668619
  C      3.22951498      4.28399740     -1.14119404
  H      3.00883737      4.16178775     -2.20650989
  H      3.47807165      5.33754642     -0.98564051
  C      4.43678090      3.41283458     -0.79882728
  H      5.29544028      3.70753915     -1.40432164
  H      4.70563952      3.50527460      0.25397723
  H      4.21169834      2.36326097     -1.00551561
  C      2.13585172      4.36243870      1.55987315
  H      2.66034187      3.52967466      2.04036430
  H      1.18872729      4.48112084      2.09602762
  C      2.96422213      5.63518723      1.73245310
  H      3.04760303      5.86641522      2.79600135
  H      3.97039548      5.50818170      1.33415096
  H      2.49891250      6.48660521      1.23549386
  P      0.44928118     -0.02485630      4.15104165
  C     -0.55398301     -1.24528101      5.16999410
  H     -0.37316768     -2.23960166      4.74933617
  H     -0.19492305     -1.25770070      6.20353069
  C     -2.05807255     -0.97920674      5.17824163
  H     -2.57598712     -1.79247087      5.68950848
  H     -2.28836988     -0.04544626      5.69225757
  H     -2.43924213     -0.91340053      4.15635890
  C      0.17625508      1.51224071      5.20774642
  H     -0.88922690      1.76013668      5.16861075
  H      0.42136562      1.32228616      6.25607087
  C      0.96676106      2.71376282      4.69696743
  H      0.78084983      3.58654121      5.32478592
  H      2.03811867      2.50952594      4.69216231
  H      0.65406673      2.94845637      3.67737533
  C      2.16411882     -0.56215708      4.68873860
  H      2.88469242     -0.02998092      4.05977861
  H      2.24926360     -1.62140468      4.42621439
  C      2.56122509     -0.38503342      6.15381596
  H      3.53755090     -0.84485506      6.31787724
  H      2.63583461      0.67016881      6.41575673
  H      1.84561641     -0.86043320      6.82471310
  P      0.99724380      0.18922343     -4.29157538
  C     -0.36281585      0.61156258     -5.52652139
  H     -0.81404933      1.55610713     -5.20840601
  H      0.05996276      0.76183060     -6.52376710
  C     -1.45599750     -0.45138266     -5.61661893
  H     -2.27055345     -0.09558151     -6.24958144
  H     -1.06644136     -1.37724117     -6.04189845
  H     -1.85866468     -0.67381471     -4.62491265
  C      1.90777452     -1.08360561     -5.35434941
  H      1.17798526     -1.82061902     -5.70311943
  H      2.32927971     -0.60438343     -6.24284074
  C      3.01145084     -1.81713048     -4.59913170
  H      3.49677341     -2.54656195     -5.24963994
  H      3.76496052     -1.11691998     -4.23696423
  H      2.58788003     -2.34483221     -3.74102390
  C      2.13605475      1.66121998     -4.51297850
  H      3.14245641      1.32536576     -4.24730249
  H      1.85522522      2.41055182     -3.76725586
  C      2.18368841      2.33311862     -5.88479615
  H      2.96173359      3.09876190     -5.88182166
  H      2.41529381      1.61628694     -6.67301507
  H      1.23454955      2.81516708     -6.11841770
  P     -2.53873756     -3.52685414      0.33888305
  C     -2.18327166     -5.26698036     -0.29919240
  H     -1.36356554     -5.68734995      0.29217273
  H     -3.05513607     -5.90982002     -0.14788846
  C     -1.79346391     -5.30404545     -1.77534500
  H     -1.55155016     -6.32586175     -2.07200338
  H     -2.60763451     -4.94247745     -2.40468911
  H     -0.91592954     -4.67501680     -1.95036083
  C     -4.25919841     -3.35263399     -0.38482810
  H     -4.15119010     -3.34891434     -1.47395970
  H     -4.86213393     -4.22784134     -0.12355610
  C     -5.00932371     -2.08867221      0.02422840
  H     -6.00826235     -2.08940881     -0.41557229
  H     -5.10559162     -2.01998385      1.10760436
  H     -4.47580277     -1.20686783     -0.33072728
  C     -2.91593802     -3.91677841      2.13631339
  H     -3.40633428     -3.03215883      2.55420655
  H     -1.95190985     -3.99831266      2.65071471
  C     -3.75622637     -5.15254364      2.45531302
  H     -3.95133832     -5.18714533      3.52874159
  H     -4.71439087     -5.12650569      1.93624959
  H     -3.23331846     -6.06706640      2.17620873
  P     -3.53686989      2.12915760     -0.46766372
  C     -4.47919658      2.53084444      1.10599001
  H     -3.74994852      2.91298131      1.82821386
  H     -5.19753804      3.33346011      0.91518612
  C     -5.22204916      1.35256375      1.73029900
  H     -5.66859279      1.65506870      2.67895300
  H     -6.01425691      0.99442320      1.07219163
  H     -4.52922675      0.52947612      1.92068631
  C     -4.97623208      1.70931031     -1.60529913
  H     -5.44272962      0.78973888     -1.23898504
  H     -5.74269935      2.48853923     -1.57385096
  C     -4.52738019      1.48113867     -3.04731297
  H     -5.37991042      1.20086278     -3.66788193
  H     -4.07275374      2.38015509     -3.46516142
  H     -3.79189429      0.67310063     -3.08464281
  C     -3.13920858      3.88264724     -1.00592137
  H     -2.50895730      3.80873831     -1.89734724
  H     -2.50690962      4.30835056     -0.21911998
  C     -4.28763208      4.84807676     -1.29667480
  H     -3.87512024      5.83124097     -1.53078113
  H     -4.87490288      4.51552123     -2.15225996
  H     -4.95191346      4.95518688     -0.43930330

