#B3LYP/6-31+G(d) OPT FREQ

146, Energy =   -192.72950820 au

0 1
 Co      1.59939029     -1.52241466      0.17929188
 Co     -1.20677689      1.76420566     -0.48609863
 Co     -1.39699286     -1.45728510     -0.31172171
 Co     -0.09089389      0.36993247      1.94137311
 Co      2.00557982      1.45047322     -0.30001672
 Co      0.33037493      0.00823656     -2.42696706
 Te      0.57745510      2.41146000     -1.99850621
 Te     -2.36422334      0.28487207      1.05948059
 Te     -2.07279080      0.10683100     -2.04006326
 Te      2.33119244      0.20810428      1.74565459
 Te     -0.21988012     -2.04426052      1.72245492
 Te      0.37516576     -2.32458245     -1.77954950
 Te      0.44173937      2.60702162      1.10432120
 Te      2.60425168     -0.42534237     -1.75937865
  P     -0.41664636      0.46066735      4.06416742
  C     -1.89670775     -0.40742049      4.82838513
  H     -1.90721313     -1.43107209      4.43869413
  H     -1.77573940     -0.47640769      5.91342670
  C     -3.24290879      0.24758916      4.52842226
  H     -4.05285031     -0.36741307      4.92416494
  H     -3.30668532      1.23838915      4.97928508
  H     -3.38023959      0.34792667      3.44878489
  C     -0.51144780      2.10134132      4.97698077
  H     -1.38503628      2.64380536      4.60198268
  H     -0.67025728      1.94416501      6.04767398
  C      0.72528001      2.97163477      4.76100861
  H      0.59893301      3.93391763      5.25970633
  H      1.62066870      2.49020395      5.15547592
  H      0.87291620      3.15242270      3.69265236
  C      0.94355038     -0.42265473      5.01234453
  H      1.89818742     -0.08656806      4.59409209
  H      0.85786714     -1.48390879      4.75305512
  C      0.99317783     -0.28757719      6.53405569
  H      1.80056980     -0.91103133      6.92254830
  H      1.18751776      0.74233106      6.83198808
  H      0.06143474     -0.61264247      6.99674482
  P     -0.27532781      0.73396988     -4.35534981
  C     -1.50402734      2.10867604     -4.70479985
  H     -1.58045556      2.70626649     -3.79202948
  H     -1.10233873      2.77132970     -5.47641911
  C     -2.90875183      1.67201005     -5.11571358
  H     -3.56955126      2.54070699     -5.13095667
  H     -2.91134413      1.22105803     -6.10795700
  H     -3.30376381      0.95123458     -4.39878607
  C     -0.91816580     -0.63089414     -5.49196668
  H     -1.87267304     -0.97861624     -5.08644915
  H     -1.11014049     -0.25157905     -6.49889295
  C      0.03735540     -1.82014770     -5.57020253
  H     -0.40951944     -2.62170525     -6.16061432
  H      0.98321351     -1.53564431     -6.03261075
  H      0.24636901     -2.20347913     -4.56737158
  C      1.19068848      1.36325678     -5.37542750
  H      2.04862134      0.71735721     -5.16231769
  H      1.43722501      2.34868413     -4.96735891
  C      1.02300363      1.47824276     -6.89030310
  H      1.89257906      1.98529770     -7.31282269
  H      0.94694985      0.49487386     -7.35337359
  H      0.13422040      2.05347921     -7.15067522
  P      4.05576369      2.03480416     -0.45618152
  C      4.57928196      3.02737394     -1.96699986
  H      4.04559510      3.98307625     -1.94661337
  H      5.64939701      3.24994011     -1.92843076
  C      4.26434590      2.32124740     -3.28307353
  H      4.62147091      2.91519945     -4.12599831
  H      4.73371130      1.33784695     -3.32218532
  H      3.18652115      2.19005187     -3.38353862
  C      5.53586837      0.88536863     -0.34022766
  H      5.32852402      0.03539102     -0.99695201
  H      6.42574692      1.38453679     -0.73642930
  C      5.85129883      0.35733878      1.05874182
  H      6.59622070     -0.43773459      0.99316893
  H      6.24796136      1.14705755      1.69711322
  H      4.95188461     -0.04217905      1.53071671
  C      4.45760688      3.29076708      0.89078244
  H      4.39109636      2.76424289      1.84845516
  H      3.64709483      4.02793770      0.89500885
  C      5.79497493      4.02744597      0.81074634
  H      5.92799197      4.63659341      1.70663463
  H      6.63001067      3.33044582      0.74542968
  H      5.82613232      4.68698362     -0.05623283
  P     -2.60516729      3.25451559      0.15051948
  C     -4.43101473      2.98729147     -0.21939190
  H     -4.76319358      2.13710594      0.38485960
  H     -5.01502469      3.85865405      0.09060418
  C     -4.72909385      2.69488557     -1.68818113
  H     -5.78807922      2.46475464     -1.81595410
  H     -4.48252049      3.55177843     -2.31626493
  H     -4.14427482      1.83790029     -2.03012073
  C     -2.40423970      4.95232634     -0.64854664
  H     -2.57395545      4.83385260     -1.72365110
  H     -3.16497588      5.64661027     -0.28146442
  C     -1.01678018      5.55499443     -0.44340962
  H     -0.95975458      6.53763466     -0.91460274
  H     -0.78800143      5.66165868      0.61750455
  H     -0.25851802      4.91061237     -0.89390128
  C     -2.74679292      3.69588465      1.96753675
  H     -1.73162682      3.84494670      2.34647786
  H     -3.13973656      2.80929299      2.47508620
  C     -3.59487493      4.90494144      2.36003599
  H     -3.62690363      4.97862955      3.44869717
  H     -3.16806274      5.82916895      1.97107115
  H     -4.61828820      4.81390303      1.99654269
  P     -2.74354033     -3.12797261     -0.25965789
  C     -2.20021224     -4.91047839     -0.48102640
  H     -1.40766487     -5.11095903      0.24601027
  H     -3.02614188     -5.58964586     -0.25005023
  C     -1.67743666     -5.22958418     -1.87997006
  H     -1.28082546     -6.24576507     -1.90721157
  H     -2.47053478     -5.14546222     -2.62355243
  H     -0.87591178     -4.53649823     -2.14926576
  C     -4.22622420     -3.12682981     -1.41571282
  H     -3.84923730     -3.16606138     -2.44275228
  H     -4.83572322     -4.02261690     -1.26512434
  C     -5.09951920     -1.88151027     -1.27193092
  H     -5.91908603     -1.91422804     -1.99159679
  H     -5.52070144     -1.80631098     -0.26902658
  H     -4.50526471     -0.98554816     -1.46669789
  C     -3.57594228     -3.26428036      1.41873571
  H     -3.90932593     -2.25730876      1.69326292
  H     -2.78528706     -3.52254227      2.13192027
  C     -4.74231942     -4.23706626      1.58918125
  H     -5.07778230     -4.21650181      2.62772582
  H     -5.58445363     -3.95989605      0.95567130
  H     -4.44801003     -5.25843090      1.34806396
  P      2.65777012     -3.12186714      1.13529343
  C      4.43313148     -3.36795000      0.53590481
  H      5.01831225     -2.48968591      0.82510138
  H      4.88676634     -4.23514722      1.02335661
  C      4.52876250     -3.54914998     -0.97773882
  H      5.57415218     -3.63241757     -1.27932975
  H      4.00224868     -4.44966782     -1.29660581
  H      4.08825806     -2.69065750     -1.49134679
  C      2.04929507     -4.88630906      0.87757450
  H      1.62222432     -4.92566906     -0.13033808
  H      2.89394987     -5.58152835      0.89162178
  C      0.99448663     -5.37183929      1.86976257
  H      0.54483571     -6.29868879      1.50963186
  H      1.43227836     -5.55974378      2.85016032
  H      0.20858746     -4.62220128      1.98487251
  C      2.95296897     -3.06813198      2.98358454
  H      1.97758032     -3.17324157      3.46833797
  H      3.30254955     -2.05749559      3.21822746
  C      3.92669006     -4.08079091      3.58596484
  H      3.88220751     -4.01990438      4.67490504
  H      3.67865672     -5.10017464      3.29097704
  H      4.95021455     -3.87009034      3.27654242

