146
Energy =   -192.73097715 au
 Co     -0.97936959     -2.11609983     -1.05564275
 Co      1.04419184      1.50314818      0.60350714
 Co     -1.93990402      0.79207463      0.08083673
 Co     -0.36099162     -0.97741210      1.95809844
 Co      1.85061876     -1.52277814     -0.02429480
 Co      0.25701844      0.40691732     -2.12441278
 Te      2.48995878      0.53311254     -1.11977273
 Te     -0.82002139      1.40158763      2.14825774
 Te     -0.52379182      2.42613412     -1.00673984
 Te      0.16869456     -3.07189931      0.84927855
 Te     -2.43444519     -1.50716153      0.76408322
 Te     -2.10682761     -0.24990336     -2.10129646
 Te      1.96808132     -0.22248071      2.02049743
 Te      1.12577381     -1.85574812     -2.29918985
  P      1.81501343      3.46128041      1.00425430
  C      2.78652709      4.44877896     -0.26198620
  H      2.14717070      4.58119743     -1.14010403
  H      3.01144473      5.44729472      0.12414723
  C      4.09097343      3.77990971     -0.69137303
  H      4.52961132      4.32039690     -1.53165036
  H      4.81089771      3.76787645      0.12760484
  H      3.90535619      2.74787660     -1.00083989
  C      2.98957777      3.62946770      2.46635177
  H      3.89937563      3.06757788      2.23205850
  H      3.28692079      4.67218715      2.60908163
  C      2.40613154      3.07775611      3.76584558
  H      3.12297850      3.19598571      4.58002244
  H      1.48392935      3.59327694      4.03628664
  H      2.18648959      2.01365558      3.65121851
  C      0.49990849      4.72932114      1.43394038
  H     -0.20312808      4.24316882      2.11869528
  H     -0.05769766      4.91605491      0.50981345
  C      0.93224116      6.06517993      2.03689709
  H      0.05615774      6.70592708      2.15302155
  H      1.38262945      5.92676372      3.01947324
  H      1.64737381      6.58087535      1.39602182
  P      0.43359102      1.65608549     -3.85531259
  C     -1.02535090      2.58301941     -4.58350303
  H     -1.44751189      3.19945505     -3.78365657
  H     -0.68208865      3.26226121     -5.36949097
  C     -2.12328316      1.68888025     -5.15527986
  H     -2.98517791      2.29417524     -5.44089058
  H     -1.77109523      1.14997794     -6.03536205
  H     -2.44410341      0.95937004     -4.40732411
  C      1.07267874      0.82528863     -5.42581571
  H      0.34023113      0.07190373     -5.73141516
  H      1.14570495      1.54700707     -6.24413229
  C      2.41929115      0.13301469     -5.22650362
  H      2.72668219     -0.36225835     -6.14899838
  H      3.19241754      0.84728189     -4.94116673
  H      2.33992873     -0.62125939     -4.43924231
  C      1.63675386      3.08558429     -3.68622996
  H      2.51342477      2.70808466     -3.15029118
  H      1.15665818      3.80990259     -3.02022566
  C      2.10569021      3.80851615     -4.94837351
  H      2.72488858      4.66083714     -4.66247379
  H      2.70427289      3.15305349     -5.58021942
  H      1.26437114      4.18123061     -5.53273061
  P     -0.80714025     -1.12868207      4.04501915
  C     -0.62065618     -2.85364907      4.78988413
  H      0.43090751     -3.14904825      4.71383904
  H     -0.88063567     -2.84435689      5.85188559
  C     -1.47919947     -3.89907007      4.08055593
  H     -1.32103739     -4.88091745      4.52959222
  H     -2.53851760     -3.64938471      4.15334006
  H     -1.20746880     -3.95509041      3.02346683
  C     -2.52523764     -0.73212197      4.70166426
  H     -3.23576975     -1.02198860      3.92039934
  H     -2.74539976     -1.35264447      5.57551163
  C     -2.77080832      0.73184514      5.06344490
  H     -3.83709045      0.89922390      5.22465989
  H     -2.23941833      1.00772576      5.97416533
  H     -2.43027647      1.38470047      4.25719856
  C      0.29944505     -0.15831679      5.20431404
  H      0.08281807      0.90217917      5.04206208
  H      1.32751582     -0.31161853      4.85922021
  C      0.22569356     -0.46857069      6.69923988
  H      0.81206778      0.26892333      7.25033260
  H     -0.79979693     -0.43253762      7.06635698
  H      0.63524975     -1.45567906      6.91287333
  P      3.20951513     -2.85118767      0.97395021
  C      4.96167892     -2.15334287      1.08420988
  H      4.94255314     -1.32339390      1.79756689
  H      5.65792120     -2.90414735      1.46723551
  C      5.48059273     -1.64406510     -0.25914393
  H      6.45790658     -1.17596862     -0.13080768
  H      5.57907051     -2.46316744     -0.97290586
  H      4.79339020     -0.90317442     -0.67736028
  C      3.62270292     -4.46380365      0.07294501
  H      3.61452357     -4.23812890     -0.99858404
  H      4.63663049     -4.79130752      0.32035288
  C      2.64873906     -5.60990294      0.33657356
  H      2.78512734     -6.39735996     -0.40651629
  H      2.80662203     -6.03770401      1.32672955
  H      1.61811585     -5.25329396      0.28205814
  C      2.99391365     -3.46048890      2.73193592
  H      2.12105787     -4.11859543      2.74312836
  H      2.73582533     -2.59365109      3.34749943
  C      4.17326532     -4.18722430      3.37763204
  H      3.85827396     -4.59700512      4.33912600
  H      4.52557915     -5.01035829      2.75612305
  H      5.00499717     -3.50609750      3.55637748
  P     -3.69297147      1.92641622      0.55883924
  C     -4.90481147      1.42748718      1.90321398
  H     -4.36126126      1.40174132      2.85160876
  H     -5.68947631      2.18310245      2.00438635
  C     -5.55818287      0.06653615      1.67128524
  H     -6.15381622     -0.21460640      2.54125847
  H     -6.20934929      0.08952293      0.79682295
  H     -4.79385088     -0.69874068      1.51066534
  C     -4.92077662      2.21440880     -0.83603001
  H     -5.32110671      1.24013255     -1.13426541
  H     -5.76724986      2.81626205     -0.49326930
  C     -4.28637863      2.86848750     -2.06165273
  H     -5.02798367      2.98217703     -2.85395959
  H     -3.88126841      3.85173278     -1.82064846
  H     -3.47437255      2.24237329     -2.43539107
  C     -3.32690581      3.68349644      1.10673638
  H     -2.58150618      4.08570104      0.41216995
  H     -2.82417727      3.60449863      2.07668150
  C     -4.48265630      4.67665528      1.22179844
  H     -4.10121471      5.62903103      1.59462263
  H     -4.94856913      4.85447327      0.25292680
  H     -5.24567228      4.32203720      1.91458858
  P     -1.21820156     -3.67080447     -2.51960228
  C     -1.02403943     -3.53732427     -4.37945555
  H      0.04656746     -3.52058512     -4.60218530
  H     -1.44857850     -4.42297143     -4.86197050
  C     -1.66796486     -2.29357735     -4.98716898
  H     -1.55863589     -2.30816698     -6.07305257
  H     -2.72963160     -2.24164165     -4.74418529
  H     -1.18889112     -1.39418240     -4.60130663
  C     -2.96391297     -4.40218243     -2.48282405
  H     -3.65059002     -3.62972712     -2.84427295
  H     -3.05224251     -5.25215357     -3.16511333
  C     -3.39496413     -4.82335772     -1.07941697
  H     -4.43649496     -5.14873107     -1.08699587
  H     -2.77804888     -5.64436758     -0.71178244
  H     -3.29931193     -3.98299120     -0.38581101
  C     -0.17149446     -5.19664204     -2.21231820
  H     -0.28437199     -5.45681413     -1.15517059
  H      0.87147592     -4.89044901     -2.34378457
  C     -0.43125118     -6.44345770     -3.05740347
  H      0.25737944     -7.23356183     -2.75229625
  H     -1.44865758     -6.80957867     -2.92164660
  H     -0.27145466     -6.24412181     -4.11684524
