146
Energy =   -192.72948267 au
 Co      1.55435377     -1.57334425      0.18118371
 Co     -1.14440970      1.80502792     -0.47230429
 Co     -1.43636149     -1.41198456     -0.31354698
 Co     -0.07521912      0.36715376      1.94982414
 Co      2.05512457      1.38883174     -0.28218174
 Co      0.34005119      0.01253353     -2.41922380
 Te      0.66268347      2.40512880     -1.97792350
 Te     -2.34925234      0.35448272      1.06694942
 Te     -2.05860268      0.18263927     -2.03409622
 Te      2.33793652      0.12522666      1.75657423
 Te     -0.28398074     -2.04188316      1.71965233
 Te      0.31098450     -2.32495244     -1.78452426
 Te      0.52662765      2.58945939      1.12331375
 Te      2.59821474     -0.49826330     -1.74875092
  P     -0.39310103      0.45313784      4.07347776
  C     -1.90374164     -0.36629257      4.83139922
  H     -1.95166505     -1.38527010      4.43231419
  H     -1.78524853     -0.44960405      5.91570323
  C     -3.22490126      0.34026269      4.53716858
  H     -4.05721499     -0.24912270      4.92538030
  H     -3.25336277      1.32790292      4.99844208
  H     -3.35699934      0.45667450      3.45845409
  C     -0.42598258      2.08968779      4.99793931
  H     -1.28174593      2.66494778      4.63075879
  H     -0.58493343      1.93097273      6.06835613
  C      0.83967915      2.91711228      4.78107417
  H      0.74609854      3.88397165      5.27814253
  H      1.71809088      2.40599792      5.17635193
  H      0.99352889      3.09145842      3.71247848
  C      0.93338647     -0.48826023      5.01314679
  H      1.89921989     -0.19260370      4.59009993
  H      0.80094563     -1.54456203      4.75324879
  C      0.99690243     -0.35673818      6.53458786
  H      1.77213348     -1.02203745      6.91918107
  H      1.24688044      0.66147567      6.83138768
  H      0.05141975     -0.63213335      7.00171362
  P     -2.84232604     -3.03375471     -0.28989862
  C     -2.36480945     -4.83368118     -0.52282139
  H     -1.59149869     -5.07229345      0.21340434
  H     -3.21981025     -5.48247462     -0.31101211
  C     -1.83416716     -5.15842775     -1.91745338
  H     -1.47406317     -6.18797738     -1.94932352
  H     -2.61312258     -5.03839843     -2.67099389
  H     -1.00444877     -4.49229151     -2.16891158
  C     -4.31390972     -2.96657777     -1.45765970
  H     -3.92901504     -3.00189842     -2.48194188
  H     -4.95275587     -3.84476492     -1.32640915
  C     -5.14887532     -1.69657290     -1.30208205
  H     -5.96931110     -1.69790004     -2.02153887
  H     -5.56722800     -1.61704614     -0.29831249
  H     -4.52750966     -0.81761926     -1.48929180
  C     -3.69225554     -3.15442638      1.38092908
  H     -3.98812028     -2.13806148      1.66374505
  H     -2.91828553     -3.45114731      2.09751049
  C     -4.89727429     -4.08246875      1.53132436
  H     -5.24500815     -4.05463254      2.56563323
  H     -5.72002181     -3.76972995      0.88899540
  H     -4.63933689     -5.11301920      1.28767809
  P      2.54806122     -3.21980614      1.12766417
  C      4.31433454     -3.52806845      0.52934808
  H      4.93261523     -2.67656955      0.82947087
  H      4.73260959     -4.41764194      1.00807372
  C      4.40670224     -3.69604421     -0.98602809
  H      5.44869564     -3.81860006     -1.28602525
  H      3.84475984     -4.57069880     -1.31633273
  H      4.00298649     -2.81457465     -1.49096912
  C      1.87711577     -4.95961416      0.85879639
  H      1.45478548     -4.97964941     -0.15167821
  H      2.69626687     -5.68471081      0.87472205
  C      0.80010802     -5.41168605      1.84279327
  H      0.32624303     -6.32543099      1.48023168
  H      1.22391938     -5.61074440      2.82712407
  H      0.03608679     -4.63880088      1.95038402
  C      2.84162100     -3.18697714      2.97675928
  H      1.86250943     -3.26447380      3.45918042
  H      3.22219063     -2.18920301      3.21820485
  C      3.78190509     -4.23310114      3.57484074
  H      3.74273098     -4.17201613      4.66398852
  H      3.49790758     -5.24291913      3.27931112
  H      4.81115829     -4.05720784      3.26270229
  P      4.12597250      1.90096812     -0.41865350
  C      4.69332228      2.88851600     -1.91765039
  H      4.20066081      3.86572358     -1.88641245
  H      5.77181915      3.06525579     -1.87472979
  C      4.35193504      2.21284474     -3.24324323
  H      4.74458255      2.79707745     -4.07716704
  H      4.77178990      1.20759868     -3.29013603
  H      3.26948189      2.13700788     -3.35249673
  C      5.56576577      0.70125296     -0.30578817
  H      5.33830718     -0.12988748     -0.97983983
  H      6.47564202      1.17826006     -0.68358032
  C      5.84963390      0.13835477      1.08627310
  H      6.57425375     -0.67468192      1.01419943
  H      6.25788056      0.90486592      1.74531131
  H      4.93429294     -0.24624936      1.53928441
  C      4.56074245      3.13225826      0.94078198
  H      4.45921956      2.60439727      1.89467425
  H      3.78067063      3.90167896      0.93711392
  C      5.92764225      3.81474312      0.88415622
  H      6.06187489      4.43190850      1.77447493
  H      6.73561312      3.08425210      0.85065627
  H      6.00722918      4.45932522      0.00899308
  P     -2.49455590      3.33548361      0.17216712
  C     -4.32697401      3.12839285     -0.20410937
  H     -4.68743525      2.28603699      0.39490378
  H     -4.88422646      4.01612529      0.10860382
  C     -4.62942818      2.85264242     -1.67522152
  H     -5.69339202      2.64893265     -1.80646995
  H     -4.36068120      3.70715116     -2.29745309
  H     -4.06507132      1.98372987     -2.02142295
  C     -2.23708916      5.03055555     -0.61613612
  H     -2.40608824      4.92379159     -1.69259190
  H     -2.97725753      5.74609343     -0.24782872
  C     -0.83222631      5.58827023     -0.40198565
  H     -0.74684028      6.57748365     -0.85486227
  H     -0.59918037      5.66836368      0.66040283
  H     -0.09365214      4.93022277     -0.86534286
  C     -2.62700638      3.76983553      1.99147862
  H     -1.60873762      3.88281494      2.37461811
  H     -3.05073418      2.89359775      2.49220360
  C     -3.43601944      5.00382937      2.38875432
  H     -3.46942397      5.07187056      3.47773611
  H     -2.97752342      5.91578899      2.00690623
  H     -4.46059214      4.94882865      2.02124963
  P     -0.25188847      0.77301143     -4.33937316
  C     -1.44095206      2.18676638     -4.67021592
  H     -1.50957002      2.76723364     -3.74586307
  H     -1.01604133      2.85470205     -5.42459771
  C     -2.85347541      1.79534545     -5.09984762
  H     -3.49069658      2.68160769     -5.10520847
  H     -2.86012481      1.36169344     -6.09973738
  H     -3.27378624      1.07344963     -4.39861628
  C     -0.94125852     -0.56460985     -5.48118860
  H     -1.90366636     -0.88584512     -5.07255768
  H     -1.12660816     -0.17434626     -6.48510808
  C     -0.02196210     -1.78120525     -5.57043688
  H     -0.49663684     -2.56728404     -6.15992605
  H      0.92834850     -1.52289462     -6.03901538
  H      0.18300947     -2.17387862     -4.57035866
  C      1.22758684      1.36318659     -5.36353004
  H      2.06371548      0.68456236     -5.16591532
  H      1.51271834      2.33390109     -4.94555951
  C      1.04997437      1.50252912     -6.87520868
  H      1.93096179      1.98748690     -7.29996746
  H      0.93869891      0.52783925     -7.34942591
  H      0.17718344      2.10835732     -7.11988163
