146
Energy =   -192.72825182 au
 Co      1.31654950     -1.85302967      0.14742265
 Co     -1.76377422      1.22748944     -0.27116161
 Co     -1.67581725     -1.44040853      1.20377968
 Co      0.65193169      0.70224511      1.59773433
 Co      0.92339488      0.82128180     -1.63924312
 Co     -1.00883204     -1.56367500     -1.81133804
 Te     -1.33546281      0.69603134     -2.60641274
 Te     -1.72655083      0.79877061      2.12002884
 Te     -3.03406503     -0.81261814     -0.72947943
 Te      2.52539045      0.25636795      0.09321170
 Te      0.40883894     -1.59412639      2.38886867
 Te     -0.66586926     -3.23415203     -0.06447839
 Te      0.30645555      2.49618498      0.00184282
 Te      1.39308427     -1.48510807     -2.24141051
  P     -2.68493438      3.16101006     -0.24772134
  C     -4.57304933      3.11602401     -0.36947283
  H     -4.97104732      2.69790438      0.56014310
  H     -4.97497139      4.12814525     -0.46796976
  C     -5.06624292      2.27176891     -1.54290451
  H     -6.15701915      2.24345848     -1.55245226
  H     -4.72041754      2.68422997     -2.49180938
  H     -4.69374509      1.24738804     -1.45587676
  C     -2.37008650      4.36498700     -1.66062960
  H     -2.19314354      3.75621901     -2.55390343
  H     -3.27004969      4.95633806     -1.85398075
  C     -1.18923115      5.31675088     -1.48084594
  H     -0.97936403      5.82672425     -2.42263070
  H     -1.40114954      6.06981568     -0.72184357
  H     -0.29894294      4.76373415     -1.17566652
  C     -2.49276707      4.24270081      1.26866920
  H     -1.45167277      4.57809458      1.29679888
  H     -2.62648221      3.59072756      2.13839310
  C     -3.41688918      5.45202920      1.40803162
  H     -3.10083418      6.05117747      2.26396034
  H     -3.38639811      6.08272906      0.51971622
  H     -4.44722758      5.13879143      1.57531877
  P     -0.88281688     -3.09552855     -3.30264956
  C     -0.40479301     -2.62164968     -5.06142393
  H      0.64563978     -2.31596659     -5.03742727
  H     -0.47776181     -3.49108772     -5.72178124
  C     -1.23631537     -1.48423584     -5.65098094
  H     -0.80706099     -1.16121506     -6.60086951
  H     -2.26443198     -1.80276116     -5.82721790
  H     -1.25523465     -0.62981493     -4.97011020
  C     -2.56015734     -3.88362610     -3.68785988
  H     -3.19582961     -3.10780820     -4.12628408
  H     -2.45880127     -4.67248195     -4.43756021
  C     -3.25947790     -4.43360485     -2.44803221
  H     -4.20509611     -4.90346441     -2.72351893
  H     -2.63673221     -5.17202496     -1.94169539
  H     -3.46691826     -3.62090560     -1.74886843
  C      0.23390925     -4.59053445     -3.11627728
  H      0.22122974     -4.88310790     -2.06230609
  H      1.25101039     -4.24820604     -3.33054635
  C     -0.06517314     -5.82181504     -3.97003075
  H      0.73377892     -6.55314995     -3.83422379
  H     -1.00412168     -6.28782882     -3.67172029
  H     -0.12036543     -5.57254250     -5.02991635
  P      1.90217226      2.10531192     -3.06090437
  C      1.02602161      3.36051896     -4.14818231
  H      0.45572330      4.03023077     -3.49755502
  H      1.75728233      3.97614644     -4.68019052
  C      0.07434930      2.73607635     -5.16593375
  H     -0.46385609      3.51826986     -5.70364732
  H      0.61731574      2.12638842     -5.88880689
  H     -0.65450403      2.10059746     -4.65629911
  C      3.02234648      1.33653933     -4.35944161
  H      2.39944241      0.71774311     -5.01342701
  H      3.47337701      2.11046601     -4.98738301
  C      4.11999529      0.45508427     -3.76608007
  H      4.71689202      0.01239696     -4.56510498
  H      4.78099050      1.02858610     -3.11566754
  H      3.67331562     -0.35263355     -3.18160366
  C      3.09422435      3.25161033     -2.16889557
  H      3.67006711      2.63296998     -1.47144193
  H      2.47836010      3.90933798     -1.54547637
  C      4.06003818      4.10317417     -2.99223630
  H      4.65838214      4.71958207     -2.31874592
  H      4.73874896      3.48083096     -3.57479210
  H      3.52529114      4.76537318     -3.67295299
  P     -3.31800624     -2.00620777      2.44237560
  C     -3.72034141     -3.84388398      2.57951875
  H     -2.89298792     -4.33626488      3.10091228
  H     -4.62019984     -3.99225532      3.18333058
  C     -3.91479503     -4.51936255      1.22407474
  H     -4.14013337     -5.57830402      1.36022711
  H     -4.73293716     -4.05796799      0.66950119
  H     -3.00034302     -4.43317296      0.63218323
  C     -5.06437249     -1.37589724      2.18646454
  H     -5.37559275     -1.68968209      1.18512815
  H     -5.74580556     -1.84993063      2.89967850
  C     -5.21316797      0.13992985      2.28338917
  H     -6.25314637      0.42424013      2.11354092
  H     -4.90803641      0.50411496      3.26442155
  H     -4.59241578      0.62684378      1.53153801
  C     -3.03135936     -1.62626960      4.25958187
  H     -2.97432487     -0.53679965      4.34891377
  H     -2.03131174     -2.00062983      4.50624950
  C     -4.02977079     -2.16424124      5.28374776
  H     -3.75516983     -1.80443331      6.27709304
  H     -5.04225216     -1.82391579      5.06679383
  H     -4.02571348     -3.25383744      5.30492927
  P      1.50079461      1.86745116      3.19211003
  C      2.99426451      2.95787751      2.85774777
  H      2.75036075      3.58771232      1.99542404
  H      3.17225128      3.62571764      3.70562319
  C      4.28215376      2.19378619      2.55990246
  H      5.07911748      2.89282730      2.30099957
  H      4.60014588      1.60845969      3.42324796
  H      4.13002302      1.51515673      1.71678769
  C      2.04885031      1.08061018      4.80807707
  H      2.86873496      0.39076949      4.58393482
  H      2.44572786      1.83399511      5.49453272
  C      0.93214009      0.29542915      5.49337900
  H      1.30947177     -0.18080640      6.39971575
  H      0.09945168      0.94602649      5.76254733
  H      0.55988594     -0.48407698      4.82301502
  C      0.31862036      3.19488407      3.79897678
  H     -0.64717341      2.70877206      3.97237010
  H      0.16453856      3.87759802      2.95568841
  C      0.69287652      4.01235904      5.03505691
  H     -0.07978295      4.76202891      5.21542315
  H      0.76394921      3.37976289      5.91944818
  H      1.64248167      4.53027788      4.90132409
  P      3.08643012     -2.69181216      1.00018959
  C      4.62692348     -2.76502815     -0.08213576
  H      4.93251014     -1.73220057     -0.27852314
  H      5.44671957     -3.25149351      0.45460796
  C      4.41840460     -3.47951624     -1.41565217
  H      5.31368919     -3.38679704     -2.03262186
  H      4.21040779     -4.53935948     -1.26447778
  H      3.57809897     -3.03665015     -1.95637941
  C      2.98679899     -4.51704846      1.46510178
  H      2.83829532     -5.08475564      0.54094877
  H      3.93159829     -4.85706951      1.89749116
  C      1.83891208     -4.84251885      2.41719071
  H      1.86298295     -5.89932593      2.68832859
  H      1.90158744     -4.24473981      3.32707037
  H      0.88227334     -4.62955445      1.93543183
  C      3.86921352     -1.92750606      2.52330491
  H      3.06268249     -1.67344720      3.21696678
  H      4.31371501     -0.98016478      2.20302528
  C      4.92288561     -2.73636958      3.27846881
  H      5.35390665     -2.11413033      4.06499838
  H      4.48140471     -3.61584308      3.74677632
  H      5.73007387     -3.05948023      2.62101127
