#B3LYP/6-31+G(d) OPT FREQ

146, Energy =   -192.73447067 au

0 1
 Co     -0.63849718     -2.19580486      0.12226168
 Co      0.64979564      1.93728368     -0.31624528
 Co     -2.09334112      0.49100631     -0.22263124
 Co     -0.11603983      0.32500148      2.15758193
 Co      2.08608581     -0.90686547      0.44168941
 Co      0.32877698     -0.42791254     -2.18043716
 Te      2.39624466      0.62351973     -1.39741604
 Te     -1.24435513      2.25831477      1.19852756
 Te     -1.02349468      1.59579269     -2.06873655
 Te      0.67575417     -1.98351490      2.14360134
 Te     -2.07301828     -1.03556897      1.70294193
 Te     -1.87935479     -1.34102159     -1.80128318
 Te      2.07679924      1.25268555      1.52662298
 Te      1.35151906     -2.42913612     -1.30076862
  P      0.40217755      1.05981398      4.10897341
  C     -0.93364457      0.69129152      5.39773978
  H     -0.95499859     -0.38916159      5.57302508
  H     -0.69822694      1.17276985      6.35074809
  C     -2.31930825      1.14139762      4.94062214
  H     -3.06275521      0.91659863      5.70699438
  H     -2.33677158      2.21385778      4.74171839
  H     -2.59559098      0.61554941      4.02445201
  C      0.63981390      2.88834108      4.47365160
  H      0.01673460      3.43154953      3.75538726
  H      0.25503904      3.12758785      5.46949625
  C      2.07461266      3.40223597      4.36398408
  H      2.07691426      4.49347430      4.35463614
  H      2.67962466      3.06478627      5.20536986
  H      2.53673296      3.04398897      3.44241808
  C      1.86846245      0.28135737      4.97889046
  H      2.77296086      0.64786900      4.48469271
  H      1.82067063     -0.79322881      4.77279029
  C      2.00050842      0.48501101      6.48849112
  H      2.96394774      0.09566859      6.82277984
  H      1.94695744      1.53997492      6.75648985
  H      1.21517747     -0.04789239      7.02416282
  P     -1.10299140     -4.12565472     -0.69397343
  C     -0.67154870     -4.90336396     -2.34418258
  H      0.40873756     -5.07351502     -2.34720275
  H     -1.15895286     -5.88138195     -2.40565655
  C     -1.03537730     -4.10707271     -3.59322431
  H     -0.83945892     -4.70713038     -4.48394172
  H     -2.08734982     -3.82330623     -3.58566243
  H     -0.43531232     -3.19902415     -3.64751390
  C     -2.91684526     -4.64938999     -0.61519712
  H     -3.46076880     -4.02312322     -1.32870910
  H     -3.04123802     -5.68687649     -0.93780286
  C     -3.53385801     -4.47075459      0.76994558
  H     -4.61265411     -4.62802833      0.72520290
  H     -3.10941843     -5.18121238      1.48026759
  H     -3.34556118     -3.46100008      1.14472777
  C     -0.29638953     -5.42533679      0.41640146
  H     -0.48716201     -5.12944463      1.45320353
  H      0.78373830     -5.32949460      0.26530503
  C     -0.68881103     -6.89225960      0.24124607
  H     -0.13081957     -7.50083573      0.95539706
  H     -1.75203088     -7.04300207      0.42586995
  H     -0.45630601     -7.24797452     -0.76217926
  P      0.71005033      4.07462688     -0.47931831
  C     -0.77255763      5.11927448     -0.95572065
  H     -1.62605325      4.74137193     -0.38427447
  H     -0.61259210      6.15564174     -0.64453602
  C     -1.12264998      5.10836876     -2.44193042
  H     -2.07661263      5.61319972     -2.60105482
  H     -0.35895145      5.61791999     -3.02935888
  H     -1.21166374      4.08092694     -2.80137798
  C      2.00386563      4.82563243     -1.63062755
  H      1.74177597      4.55399351     -2.65755744
  H      1.99292227      5.91772869     -1.57800755
  C      3.41105701      4.30727508     -1.34101546
  H      4.11629158      4.70348415     -2.07321259
  H      3.74231512      4.60271556     -0.34490661
  H      3.42860346      3.21524851     -1.39924221
  C      1.15108676      4.90967347      1.14423749
  H      1.95716663      4.32367648      1.59562195
  H      0.28000873      4.78659329      1.79620273
  C      1.56465498      6.38096924      1.13510664
  H      1.69119178      6.72242506      2.16417432
  H      2.51115716      6.52114110      0.61373217
  H      0.81059532      7.00859938      0.66025005
  P     -4.17615550      0.65781073      0.25796405
  C     -5.35251272     -0.80461845      0.19979733
  H     -4.97142464     -1.55368064      0.90040813
  H     -6.34305253     -0.50561202      0.55588579
  C     -5.49970601     -1.44407828     -1.17984337
  H     -6.05786761     -2.37829930     -1.09891657
  H     -6.03244296     -0.78138296     -1.86260541
  H     -4.51806523     -1.66119958     -1.60745844
  C     -5.10164623      1.82982459     -0.89770430
  H     -5.08372423      1.39205039     -1.90076628
  H     -6.15186314      1.92455674     -0.60924338
  C     -4.45450938      3.21169771     -0.96563713
  H     -4.99727083      3.84920189     -1.66533831
  H     -4.44958510      3.69376173      0.01262273
  H     -3.42165154      3.12113654     -1.30911309
  C     -4.64363759      1.33192826      1.94430427
  H     -3.90866808      2.10147278      2.20165402
  H     -4.49610282      0.51260730      2.65492852
  C     -6.04710932      1.90522757      2.13713648
  H     -6.19167680      2.15120246      3.19076721
  H     -6.18345119      2.81649918      1.55538633
  H     -6.81626328      1.18909575      1.84729108
  P      3.65275946     -2.11453141      1.27060428
  C      5.30951302     -1.82837747      0.40532776
  H      5.65277055     -0.81696297      0.64610216
  H      6.06397641     -2.52624573      0.77892596
  C      5.21650287     -1.96678975     -1.11316374
  H      6.19746298     -1.81232388     -1.56558319
  H      4.85501751     -2.95691233     -1.39411958
  H      4.52789154     -1.22115186     -1.51641346
  C      3.62338801     -3.99096263      1.18514886
  H      3.11164497     -4.25018028      0.25199681
  H      4.64370476     -4.37851617      1.10652876
  C      2.91683250     -4.69762635      2.34072350
  H      2.78462994     -5.75419306      2.10154532
  H      3.49539088     -4.62289555      3.26153120
  H      1.93543844     -4.25355378      2.51565661
  C      4.18179871     -1.80603719      3.04309259
  H      3.37722186     -2.17290288      3.68733906
  H      4.21409391     -0.72004332      3.18121157
  C      5.51059626     -2.39943188      3.51235111
  H      5.61653573     -2.24335890      4.58752182
  H      5.56073364     -3.47023498      3.31620232
  H      6.35159240     -1.91657258      3.01515737
  P      0.83396782      0.23096058     -4.15823650
  C     -0.56263413      0.40812574     -5.41034795
  H     -1.14637965      1.28941403     -5.12735167
  H     -0.15561791      0.58498265     -6.40986737
  C     -1.49616569     -0.79844757     -5.47152975
  H     -2.31642809     -0.60077491     -6.16363189
  H     -0.96355835     -1.68747448     -5.81164834
  H     -1.91727461     -1.00639040     -4.48506435
  C      1.96696099     -0.88051933     -5.18379297
  H      1.39721155     -1.76737691     -5.47866716
  H      2.26747989     -0.37223833     -6.10473377
  C      3.21083544     -1.33427987     -4.42470304
  H      3.83072670     -1.96996944     -5.05898675
  H      3.80450466     -0.47864425     -4.10023042
  H      2.92043686     -1.90563456     -3.53943624
  C      1.69324502      1.87820454     -4.40167589
  H      2.73173819      1.74448893     -4.08606503
  H      1.24674506      2.58434730     -3.69571401
  C      1.67593399      2.50767930     -5.79424758
  H      2.31034734      3.39600730     -5.79223856
  H      2.05669928      1.81991719     -6.54964052
  H      0.66790124      2.81218213     -6.07506413

