#B3LYP/6-31+G(d) OPT FREQ

146, Energy =   -192.73152803 au

0 1
 Co      0.74125719     -2.05208295      0.36665469
 Co     -0.87264028      1.91821166     -0.48635281
 Co     -2.01026285     -0.95203389     -0.38704677
 Co     -0.70122774      0.32443984      2.11553549
 Co      1.95636524      0.72063796      0.65441140
 Co      0.68520820     -0.15430804     -2.06709082
 Te      1.42136950      2.05093711     -1.29135828
 Te     -2.68167136      0.99741548      0.88186081
 Te     -1.65676213      0.46505246     -2.30340338
 Te      1.38332062     -0.90699637      2.40065349
 Te     -1.28278221     -1.99431697      1.71325867
 Te     -0.47610601     -2.25048899     -1.75034482
 Te      0.44773733      2.41420446      1.49535207
 Te      2.59104209     -1.05525205     -0.87372468
  P     -2.22871806      3.55566931     -0.80185404
  C     -3.94417222      3.37288308     -1.53569837
  H     -4.44496876      2.56855936     -0.98833285
  H     -4.52126839      4.28613839     -1.36346382
  C     -3.97197531      3.05493803     -3.02902984
  H     -4.99255813      2.82720556     -3.34113952
  H     -3.60984160      3.89866616     -3.61706756
  H     -3.34297016      2.18735718     -3.24237436
  C     -1.60420326      4.99834284     -1.85225634
  H     -1.50312212      4.65297588     -2.88483647
  H     -2.32819664      5.81761235     -1.86349177
  C     -0.24594438      5.51470503     -1.38182216
  H      0.11176956      6.29848553     -2.05153975
  H     -0.30829487      5.92268227     -0.37221524
  H      0.48515179      4.70133832     -1.37915100
  C     -2.67666491      4.46192006      0.78124078
  H     -1.75840872      4.54673205      1.36981161
  H     -3.33786718      3.79165234      1.33980486
  C     -3.32576799      5.84268922      0.69138630
  H     -3.61098635      6.16812849      1.69360549
  H     -2.63446834      6.57869583      0.28183889
  H     -4.22297320      5.82637976      0.07260476
  P     -3.78306420     -2.10364209     -0.03347063
  C     -3.77764028     -3.98203194     -0.03129758
  H     -3.11956536     -4.30441883      0.78092728
  H     -4.77830488     -4.36267544      0.19479229
  C     -3.29724228     -4.60819100     -1.33932845
  H     -3.16231714     -5.68338345     -1.21050021
  H     -4.02050703     -4.44435451     -2.13891677
  H     -2.34351806     -4.17160763     -1.64551182
  C     -5.11430170     -1.82330346     -1.34424922
  H     -4.72758702     -2.19987128     -2.29650057
  H     -6.01850180     -2.39484353     -1.11866213
  C     -5.46279247     -0.34690660     -1.51869718
  H     -6.20513992     -0.22416058     -2.30872925
  H     -5.86231353      0.07588924     -0.59638431
  H     -4.56748573      0.21375217     -1.79447121
  C     -4.74055500     -1.82184696      1.55434085
  H     -4.67850972     -0.75367302      1.78589900
  H     -4.18875653     -2.34202305      2.34361501
  C     -6.20535003     -2.25387684      1.60836936
  H     -6.57866593     -2.12683982      2.62624989
  H     -6.81954296     -1.64577059      0.94465425
  H     -6.32530436     -3.30141818      1.33130350
  P      1.62069186     -3.95799695     -0.04713087
  C      2.74623415     -4.42314418     -1.47105569
  H      3.67936122     -3.86632538     -1.34497446
  H      2.98548786     -5.48886950     -1.40484473
  C      2.19864845     -4.13492213     -2.86505154
  H      2.87199227     -4.54183782     -3.62167979
  H      1.21120010     -4.57582254     -3.00001605
  H      2.11831694     -3.05901304     -3.01507914
  C      0.49879319     -5.47271387     -0.07506874
  H     -0.18911583     -5.34604428     -0.91669315
  H      1.07335469     -6.38378032     -0.26546336
  C     -0.31450388     -5.64426023      1.20622102
  H     -1.07110149     -6.41874964      1.07076773
  H      0.32743907     -5.92992724      2.04027872
  H     -0.81698672     -4.70938343      1.46814847
  C      2.79500841     -4.38948909      1.36530818
  H      2.25050515     -4.22885341      2.30153484
  H      3.59186575     -3.63877063      1.34553401
  C      3.43232746     -5.77893992      1.39379507
  H      4.06174591     -5.86755865      2.28131755
  H      2.67566557     -6.56195066      1.43471641
  H      4.05752279     -5.94535683      0.51692090
  P     -0.90126453      1.28583416      4.02673648
  C     -1.76989310      0.17680314      5.28933656
  H     -1.10882624     -0.66477742      5.52032391
  H     -1.95197311      0.71586340      6.22295983
  C     -3.09541035     -0.36954672      4.76279423
  H     -3.56219077     -1.01413027      5.50927542
  H     -3.78470105      0.44112537      4.52261031
  H     -2.92266757     -0.95603739      3.85787112
  C     -1.92638169      2.84252449      4.27578586
  H     -2.71321186      2.82263602      3.51448719
  H     -2.42723553      2.81424995      5.24806557
  C     -1.16131277      4.15957963      4.15344764
  H     -1.86450179      4.98983064      4.06919904
  H     -0.53027669      4.33080538      5.02541066
  H     -0.52545601      4.14880058      3.26640747
  C      0.65776925      1.67272768      4.99124378
  H      1.14669623      2.51742218      4.49699450
  H      1.32571982      0.81430222      4.86252160
  C      0.52353511      1.97014551      6.48483631
  H      1.48643342      2.30583334      6.87429156
  H     -0.21219758      2.75174783      6.67315684
  H      0.22786132      1.07721982      7.03528334
  P      1.38331309      0.43859134     -4.00342111
  C      1.32756182      2.18227670     -4.68864966
  H      1.98323494      2.80137883     -4.06990383
  H      1.71736267      2.20415264     -5.71078912
  C     -0.07069768      2.79571006     -4.68437207
  H     -0.02434738      3.83370784     -5.01815313
  H     -0.74225510      2.24870421     -5.34646004
  H     -0.49013073      2.77062442     -3.67876343
  C      0.55876563     -0.42279000     -5.46465046
  H     -0.49326117     -0.11890069     -5.46053114
  H      0.98798469     -0.07726836     -6.40960128
  C      0.61998883     -1.94677790     -5.40455596
  H      0.06423750     -2.37706135     -6.23944411
  H      1.65051548     -2.29960563     -5.45684347
  H      0.17696413     -2.30624550     -4.47258117
  C      3.20023001      0.05467944     -4.28573881
  H      3.36859357     -0.97026446     -3.94024661
  H      3.76558408      0.69711568     -3.60214039
  C      3.77128628      0.20525211     -5.69559100
  H      4.83276555     -0.04884511     -5.68259242
  H      3.27117834     -0.46257342     -6.39658858
  H      3.67137372      1.22812960     -6.05792298
  P      3.88020458      0.79515198      1.58949929
  C      5.09456472      1.90109305      0.65316241
  H      4.75710249      2.93839592      0.74673277
  H      6.09000340      1.84051181      1.10182713
  C      5.19884527      1.55230833     -0.83054400
  H      5.95647139      2.17380359     -1.31076840
  H      5.46674815      0.50388193     -0.96810310
  H      4.24136497      1.72848996     -1.32532765
  C      4.99437552     -0.69934561      1.81961731
  H      4.81542013     -1.35500153      0.96087993
  H      6.04336137     -0.39149366      1.77093345
  C      4.77893189     -1.50257454      3.10121414
  H      5.33407373     -2.44057827      3.04530099
  H      5.12336383     -0.95100454      3.97605639
  H      3.71986615     -1.73088491      3.23309541
  C      3.96651595      1.61181055      3.27913441
  H      3.51020274      0.92094886      3.99447749
  H      3.31187602      2.48933088      3.24249502
  C      5.33736084      2.04164951      3.80237609
  H      5.23938657      2.38782083      4.83300298
  H      6.04729382      1.21498067      3.78564597
  H      5.74373526      2.85905835      3.20708514

