146
Energy =   -192.73177083 au
 Co      2.09440139     -0.91506887      0.25629177
 Co     -1.86872582      0.95819916     -0.30859488
 Co     -1.00977551     -1.97379668      0.05675969
 Co     -0.09738510     -0.07358314      2.26728567
 Co      0.96038627      1.97337724      0.22200243
 Co      0.29987378     -0.23736272     -2.11920632
 Te     -0.32528498      2.09222144     -1.83995490
 Te     -2.36660544     -0.54710371      1.51970756
 Te     -2.03365498     -0.90540500     -1.86571521
 Te      2.15584613      0.79287572      1.97954534
 Te      0.75585371     -2.31006842      1.69460776
 Te      0.95941565     -2.44008253     -1.26489250
 Te     -1.01529166      2.08033467      1.68388035
 Te      2.35068410      0.87443844     -1.40655196
  P     -2.44091687     -3.52290085      0.40982281
  C     -2.09685807     -5.06521506     -0.62213072
  H     -1.13697490     -5.48481985     -0.30335787
  H     -2.86130500     -5.82763560     -0.44806825
  C     -2.02806231     -4.76407668     -2.11841601
  H     -1.80586015     -5.67544833     -2.67584939
  H     -2.97282377     -4.35564495     -2.47948072
  H     -1.24006851     -4.03533423     -2.31690958
  C     -4.27501409     -3.35636304      0.04229394
  H     -4.36105796     -2.72272512     -0.84656371
  H     -4.69409804     -4.33204419     -0.22202314
  C     -5.11576691     -2.74718130      1.16345520
  H     -6.11071966     -2.50095485      0.78842152
  H     -5.22418084     -3.44249235      1.99608430
  H     -4.64704293     -1.83395394      1.53564094
  C     -2.45170151     -4.28323321      2.12485514
  H     -2.89799037     -3.54911267      2.80190567
  H     -1.40512908     -4.38560330      2.43192378
  C     -3.15680830     -5.62689304      2.31192278
  H     -3.18629715     -5.87473731      3.37468690
  H     -4.18090547     -5.59549838      1.94010765
  H     -2.62392687     -6.42337739      1.79277000
  P     -3.40618193      2.21898957     -1.10790543
  C     -5.10101399      1.77885796     -0.40449814
  H     -5.04006926      1.83674108      0.68707374
  H     -5.86444082      2.49108227     -0.72823543
  C     -5.53780075      0.37002178     -0.80268252
  H     -6.43426404      0.08170875     -0.25157806
  H     -5.75487480      0.31706712     -1.87011742
  H     -4.74549400     -0.34694548     -0.58107076
  C     -3.89435577      2.30184879     -2.91876006
  H     -3.83375375      1.28116349     -3.30884593
  H     -4.94049524      2.61190430     -3.00521026
  C     -3.03794257      3.21178398     -3.79682313
  H     -3.29822540      3.06349459     -4.84638033
  H     -3.19526474      4.26142399     -3.54800322
  H     -1.97927211      2.98291743     -3.66215484
  C     -3.31942377      4.03457715     -0.64909822
  H     -2.46789721      4.45729339     -1.18943737
  H     -3.06118928      4.08262732      0.41428548
  C     -4.54835983      4.90827607     -0.90249627
  H     -4.29560200      5.95162762     -0.70528959
  H     -4.88750434      4.82920485     -1.93507347
  H     -5.37112068      4.62845510     -0.24498623
  P      4.19270102     -1.15893890     -0.13479634
  C      4.88149251     -1.54586740     -1.83897279
  H      4.53454324     -0.75545703     -2.51162456
  H      5.97464790     -1.50064284     -1.82569366
  C      4.45369361     -2.90143152     -2.40033963
  H      4.71631001     -2.96596093     -3.45782987
  H      4.94992153     -3.71646125     -1.87225025
  H      3.37424653     -3.03460920     -2.30124612
  C      4.96628816     -2.59623829      0.81808963
  H      4.50830587     -3.52156743      0.45455845
  H      6.03895173     -2.67169011      0.62095777
  C      4.71842230     -2.49757750      2.32183217
  H      5.14237566     -3.36416903      2.83239713
  H      5.16673925     -1.59482932      2.73880092
  H      3.64433112     -2.47115408      2.51841511
  C      5.33322602      0.25730136      0.32502622
  H      4.93983788      0.70401524      1.24417611
  H      5.21671942      1.01191517     -0.45983984
  C      6.82083627     -0.03560425      0.51715745
  H      7.35699961      0.90577584      0.65012545
  H      6.98834001     -0.64964247      1.40244478
  H      7.24512206     -0.54884487     -0.34654265
  P      0.48921397     -0.77439963     -4.18570392
  C     -0.49747349      0.33944870     -5.33776109
  H     -0.40056152      1.36300859     -4.96024846
  H     -0.08101693      0.32744525     -6.34860256
  C     -1.98052381     -0.02116129     -5.41502262
  H     -2.53872619      0.78886851     -5.88698933
  H     -2.13036291     -0.92930377     -5.99963358
  H     -2.38560357     -0.18980930     -4.41348261
  C      0.02195590     -2.43395907     -4.92511438
  H     -0.96771485     -2.69385227     -4.53610762
  H     -0.07608216     -2.34140862     -6.01110005
  C      0.98285697     -3.57757278     -4.60777484
  H      0.57305443     -4.51980210     -4.97599175
  H      1.95661620     -3.41793385     -5.07128205
  H      1.12550017     -3.65869684     -3.52804597
  C      2.22040540     -0.52013278     -4.87609468
  H      2.88778614     -1.17955720     -4.31229870
  H      2.51566342      0.50116058     -4.61170589
  C      2.46399458     -0.73948988     -6.36982745
  H      3.52283417     -0.58516006     -6.58667068
  H      2.19921596     -1.75263054     -6.67119447
  H      1.88929077     -0.03789110     -6.97430463
  P      1.29598016      3.96376318      0.95193592
  C      0.13332845      5.37325933      0.51575778
  H     -0.86562285      5.09364245      0.86392274
  H      0.41717117      6.28417991      1.05044982
  C      0.07612112      5.68347135     -0.97957961
  H     -0.73385703      6.38550320     -1.18480871
  H      1.01144530      6.12852585     -1.32063077
  H     -0.09966717      4.77056813     -1.55389415
  C      2.90813934      4.72313977      0.32536802
  H      2.85734708      4.76402234     -0.76716372
  H      3.02495424      5.75117496      0.67902274
  C      4.13159714      3.89840013      0.71759129
  H      5.03607058      4.33646234      0.29231770
  H      4.24491437      3.85031022      1.80106447
  H      4.02814385      2.88014655      0.33906756
  C      1.46073799      4.24942381      2.79608408
  H      2.11566642      3.45971878      3.17685279
  H      0.47180391      4.06845329      3.22916899
  C      1.98217523      5.59691040      3.29403361
  H      1.97840315      5.59832286      4.38563678
  H      3.00380560      5.77465665      2.95933271
  H      1.35604740      6.42107572      2.95239566
  P      0.23997377     -0.78074799      4.26851942
  C     -0.88045402     -2.11036950      4.98435922
  H     -0.77901512     -2.99904580      4.35416391
  H     -0.55197188     -2.38889209      5.98963679
  C     -2.35249786     -1.70617512      5.04673841
  H     -2.96250692     -2.56236116      5.33971879
  H     -2.50651807     -0.90777827      5.77348580
  H     -2.69430572     -1.35375779      4.07045207
  C     -0.01927589      0.54695576      5.58947706
  H     -1.00359901      0.99359024      5.41625541
  H     -0.03770807      0.10886476      6.59131940
  C      1.03049190      1.65442448      5.53105955
  H      0.72587100      2.49962385      6.15038799
  H      1.99904276      1.29882260      5.88319780
  H      1.15323158      1.99997099      4.50366319
  C      1.90280062     -1.47750553      4.78192207
  H      2.67120446     -0.81386219      4.37217481
  H      2.01060576     -2.43389389      4.26168244
  C      2.17838103     -1.69764972      6.26943738
  H      3.15871539     -2.16383524      6.38427992
  H      2.18494455     -0.75675212      6.81869271
  H      1.43615987     -2.35648632      6.72057618
