146
Energy =   -192.73135945 au
 Co     -0.47514841     -1.93311242     -0.37721288
 Co     -0.06049998      2.31725781      0.65371492
 Co     -2.33276410      0.25156536      0.68095161
 Co      0.24142339     -0.31200059      2.31478228
 Co      1.98764540     -0.13411744     -0.18643385
 Co     -0.37703024      0.76231261     -1.93751637
 Te      1.54263338      2.06537601     -1.13959684
 Te     -1.35047491      1.48845668      2.54230190
 Te     -2.03722667      2.13686457     -0.78919586
 Te      1.40191362     -2.10033675      1.15163841
 Te     -1.57398338     -1.80301912      1.77686483
 Te     -2.25372950     -0.72286595     -1.55072587
 Te      1.89038152      1.39315363      1.72802698
 Te      1.01675597     -1.20539473     -2.15603907
  P     -4.17612002     -0.36410434      1.59993215
  C     -4.99542041     -2.02673978      1.29619880
  H     -4.33976517     -2.79448443      1.71653290
  H     -5.94711410     -2.07917265      1.83378066
  C     -5.25018843     -2.34752275     -0.17549888
  H     -5.60669651     -3.37400123     -0.27609409
  H     -6.00122974     -1.67826955     -0.59654840
  H     -4.33392691     -2.23830242     -0.75833849
  C     -5.64336789      0.73933837      1.13890114
  H     -5.84311300      0.59777186      0.07199044
  H     -6.54662101      0.43630663      1.67494696
  C     -5.36535808      2.21964744      1.38583182
  H     -6.22137392      2.82251726      1.07865601
  H     -5.16537074      2.41213657      2.44047979
  H     -4.49480903      2.53405431      0.80593343
  C     -4.24723865     -0.33801916      3.47377581
  H     -3.70192198      0.55210000      3.80418482
  H     -3.66301732     -1.19786416      3.81734716
  C     -5.61562794     -0.36304844      4.15318035
  H     -5.47750744     -0.42925115      5.23390735
  H     -6.17832933      0.54533434      3.93940599
  H     -6.20609351     -1.22176243      3.83347414
  P     -0.16242142      1.74965605     -3.83040974
  C     -1.39445735      1.11665205     -5.11169817
  H     -2.40368161      1.37701446     -4.77681163
  H     -1.23559299      1.60148284     -6.07874056
  C     -1.31264230     -0.39756754     -5.29609147
  H     -2.05665884     -0.73032289     -6.02148475
  H     -0.32474388     -0.69591868     -5.64895877
  H     -1.50616242     -0.89873935     -4.34607271
  C      1.38741186      1.65647343     -4.88809037
  H      1.77609838      0.63778376     -4.79528495
  H      1.13142183      1.80141839     -5.94219575
  C      2.49356390      2.63926428     -4.50921691
  H      3.41285053      2.38701955     -5.04040753
  H      2.21593211      3.66154308     -4.76654809
  H      2.68676254      2.59786914     -3.43541462
  C     -0.55391680      3.58027313     -3.89235890
  H      0.25411660      4.09891556     -3.36932533
  H     -1.45611146      3.73210091     -3.29025559
  C     -0.75550023      4.23070151     -5.26104796
  H     -0.86448197      5.30939506     -5.13435284
  H      0.09462213      4.04875878     -5.91826033
  H     -1.65578764      3.85335098     -5.74544688
  P      3.97572838     -0.71949117     -0.74577235
  C      4.64293915      0.06329703     -2.32130731
  H      4.26267234      1.08951137     -2.35350709
  H      5.73366181      0.12746384     -2.28799579
  C      4.24029542     -0.65379688     -3.60852815
  H      4.46286324     -0.02331632     -4.47080996
  H      4.78279832     -1.59308570     -3.71906412
  H      3.17003194     -0.87528793     -3.60284678
  C      4.48075852     -2.49931974     -1.05485713
  H      3.73633625     -2.93158308     -1.73123489
  H      5.44258850     -2.53066944     -1.57559002
  C      4.56305534     -3.37037934      0.19676218
  H      4.71735595     -4.41286540     -0.08670243
  H      5.38530021     -3.06078518      0.84197831
  H      3.63275434     -3.29984941      0.76582720
  C      5.29904554     -0.15867977      0.47364598
  H      5.05492976     -0.61365735      1.43876240
  H      5.16866276      0.92058629      0.60873516
  C      6.76832226     -0.44629292      0.16030596
  H      7.38454355     -0.12053016      1.00028686
  H      6.94111400     -1.51064667      0.00456470
  H      7.09837499      0.09071700     -0.72858453
  P      1.43351805     -0.79601460      4.02751868
  C      1.21260090     -2.52457626      4.74290792
  H      1.60984297     -3.23677710      4.01296871
  H      1.79599906     -2.63025095      5.66187119
  C     -0.23959241     -2.88743132      5.04639261
  H     -0.30088202     -3.92226058      5.38738502
  H     -0.65062651     -2.24190427      5.82374530
  H     -0.85578975     -2.78037699      4.15030289
  C      1.19631296      0.17760649      5.62747492
  H      0.25198816     -0.13577801      6.08305540
  H      1.99015458     -0.05970898      6.34156239
  C      1.14565123      1.68552692      5.40259833
  H      1.02704792      2.20872647      6.35274755
  H      2.05753323      2.03934066      4.91961851
  H      0.29612836      1.93252394      4.76124690
  C      3.30148711     -0.74067651      3.88854655
  H      3.58610594      0.31514997      3.86106194
  H      3.56092237     -1.15507508      2.90999023
  C      4.13555579     -1.45450922      4.95195007
  H      5.19129656     -1.23109729      4.78729029
  H      3.87177936     -1.12536968      5.95721186
  H      4.00500794     -2.53490395      4.89276999
  P     -0.75535798      4.33059099      0.89311204
  C     -0.73081854      5.52878264     -0.55654649
  H     -1.37682275      5.11120574     -1.33455465
  H     -1.15946386      6.49225588     -0.26505894
  C      0.66366254      5.76283329     -1.13614108
  H      0.58965586      6.28727162     -2.09016750
  H      1.27050284      6.36597074     -0.46021718
  H      1.17602226      4.81148652     -1.30016254
  C      0.29361299      5.34864157      2.09017954
  H      1.28965924      5.45925923      1.65052282
  H     -0.11557201      6.35545467      2.20762217
  C      0.44743307      4.68689515      3.45647676
  H      1.01345026      5.33319726      4.12933691
  H     -0.52372781      4.47777113      3.90655830
  H      0.98533622      3.74375060      3.34670897
  C     -2.49225059      4.67055052      1.50940925
  H     -2.73532400      3.89288679      2.24018998
  H     -3.15859519      4.51548570      0.65521417
  C     -2.79108355      6.03534714      2.12799702
  H     -3.86151641      6.11035918      2.32800265
  H     -2.26133586      6.16323536      3.07164693
  H     -2.51293403      6.84957945      1.45842480
  P     -0.63637941     -3.79727275     -1.41965908
  C     -1.08097699     -3.93881580     -3.23566748
  H     -0.46494401     -3.21187612     -3.77419533
  H     -0.81026220     -4.93049301     -3.61047823
  C     -2.55211945     -3.68125292     -3.55516219
  H     -2.69249146     -3.62275694     -4.63576496
  H     -3.18364814     -4.48083200     -3.16711499
  H     -2.87638890     -2.73694434     -3.11206231
  C     -1.80761296     -5.10217783     -0.72310394
  H     -2.82802491     -4.71851274     -0.82177891
  H     -1.75538689     -6.02482853     -1.30772833
  C     -1.55321677     -5.41078576      0.75090375
  H     -2.29576415     -6.12056076      1.11864590
  H     -0.56110093     -5.83716394      0.90070815
  H     -1.62687176     -4.49548479      1.34374127
  C      0.99912043     -4.72164314     -1.44222034
  H      1.46307602     -4.58398350     -0.45987613
  H      1.63801544     -4.19122762     -2.15669886
  C      0.99568038     -6.21132955     -1.78295956
  H      2.02520945     -6.56160482     -1.87123062
  H      0.50725212     -6.79108571     -1.00084124
  H      0.48857131     -6.40695801     -2.72741607
