#B3LYP/6-31+G(d) OPT FREQ

146, Energy =   -192.68166493 au

0 1
 Co      0.15585456     -2.05021130     -0.71574157
 Co     -0.08196684      2.40406568      0.34510111
 Co     -2.00569677      0.05503879      0.16249802
 Co      0.92862460     -0.22382260      1.56423055
 Co      2.06737519      0.50621552     -1.16328524
 Co     -0.69110015      0.59431321     -2.41262797
 Te      0.78653560      2.46803873     -1.89515881
 Te     -1.02806991      1.06732024      2.16926596
 Te     -2.01455458      2.16932196     -1.10161765
 Te      2.37407595     -1.53879678      0.08829184
 Te     -0.97754829     -1.74992377      1.43894369
 Te     -1.90841150     -1.43146874     -1.76931307
 Te      2.18689662      1.79084940      0.88802661
 Te      1.07242378     -1.07956470     -2.71161852
  P      2.55472669     -0.32175489      2.96669742
  C      4.39274045     -0.22480148      2.60178169
  H      4.51216815      0.42761377      1.73222434
  H      4.90604506      0.26495702      3.43412139
  C      5.08699186     -1.55527828      2.31761630
  H      6.09654674     -1.36923417      1.94684561
  H      5.15752699     -2.16582837      3.21781196
  H      4.53677526     -2.11080429      1.55621427
  C      2.51261232     -1.87675341      4.04447200
  H      2.73251411     -2.73463277      3.40217389
  H      3.28595204     -1.84524535      4.81641662
  C      1.14668069     -2.09580516      4.69211201
  H      1.12594739     -3.05555884      5.21088893
  H      0.92058218     -1.30813883      5.41153249
  H      0.36320579     -2.09799384      3.92911204
  C      2.42163507      1.02023018      4.28872612
  H      1.35799913      1.15099502      4.51361943
  H      2.74809508      1.94883207      3.80917648
  C      3.18218630      0.83775127      5.60158969
  H      3.08676661      1.74457411      6.20179927
  H      2.77867786      0.00633328      6.17879911
  H      4.24294376      0.65595119      5.42763887
  P      0.23985630     -4.10874160     -0.14043432
  C      1.38355319     -5.08786353     -1.27903593
  H      2.40666089     -4.73917058     -1.10473852
  H      1.35418145     -6.15395718     -1.03781684
  C      1.04351572     -4.90669566     -2.75758924
  H      1.77057481     -5.43480099     -3.37653951
  H      0.04986926     -5.29813695     -2.97954968
  H      1.06508267     -3.84671150     -3.02514737
  C     -1.27887276     -5.21044891     -0.28088059
  H     -1.75016169     -4.98794027     -1.24383200
  H     -0.97744500     -6.26197295     -0.31001268
  C     -2.31785500     -5.02305148      0.82127822
  H     -3.18810056     -5.65053747      0.62134953
  H     -1.91158704     -5.29644448      1.79532295
  H     -2.64658938     -3.98394215      0.87255605
  C      0.94031855     -4.61421667      1.51992463
  H      0.25857851     -4.23894943      2.28819644
  H      1.87966219     -4.06597729      1.64685828
  C      1.19896708     -6.09972160      1.76875577
  H      1.53587104     -6.23670733      2.79791442
  H      0.29427987     -6.69035233      1.62562249
  H      1.97353504     -6.48308499      1.10496303
  P     -3.89592147     -2.32000110      2.74457384
  C     -5.22635605     -3.25016082      3.72905071
  H     -4.76098733     -3.63384012      4.64232297
  H     -6.06375812     -2.61469609      4.03210634
  C     -5.76490541     -4.43227386      2.92044226
  H     -6.47150464     -5.01165935      3.51736817
  H     -6.27757877     -4.08526448      2.02227567
  H     -4.94916631     -5.09027371      2.61594663
  C     -5.09859935     -1.32948661      1.67530294
  H     -5.40521187     -1.99652445      0.86313679
  H     -6.00403894     -1.08443462      2.24020726
  C     -4.55767615     -0.04253714      1.05924328
  H     -5.29420504      0.38405524      0.37629625
  H     -4.33316313      0.69755167      1.82743798
  H     -3.62947289     -0.24688432      0.47743166
  C     -3.43036058     -1.04881442      4.04335618
  H     -2.75282842     -0.32747585      3.57059183
  H     -2.83235175     -1.57578825      4.79502517
  C     -4.54369996     -0.27535376      4.75209367
  H     -4.10072526      0.44986875      5.43773627
  H     -5.16426590      0.26784680      4.03937845
  H     -5.18384871     -0.94127363      5.33086437
  P     -0.90429351      3.98917904      1.54353947
  C     -0.72702002      5.62297057      0.60583184
  H     -1.39952317      5.59307434     -0.25747731
  H     -1.02741716      6.47066171      1.22741676
  C      0.70177487      5.84850129      0.11291720
  H      0.75597589      6.76345954     -0.47913054
  H      1.39310564      5.93658777      0.95210737
  H      1.02292914      5.01093803     -0.51225343
  C     -0.11245818      4.52348730      3.16538448
  H      0.96797413      4.38731683      3.04906049
  H     -0.28088405      5.59173132      3.33202343
  C     -0.56812415      3.75117559      4.40146761
  H      0.06895720      4.00111947      5.25147152
  H     -1.59928598      3.99474014      4.65770101
  H     -0.50722129      2.67650126      4.22238191
  C     -2.73036218      4.04616624      1.94783419
  H     -2.92617729      3.26329974      2.68608955
  H     -3.26613826      3.75143509      1.03905209
  C     -3.30384882      5.36912421      2.45463614
  H     -4.34570832      5.22251751      2.74510845
  H     -2.75564822      5.73342637      3.32342664
  H     -3.27253603      6.13378827      1.67870991
  P     -2.12300804      0.53532312     -4.01237623
  C     -2.15989138     -0.88602099     -5.24008677
  H     -2.51202359     -1.77037205     -4.70042258
  H     -2.87892167     -0.67852059     -6.03814469
  C     -0.80422203     -1.19899342     -5.86929529
  H     -0.87888557     -2.09121236     -6.49313741
  H     -0.45975090     -0.37052804     -6.48937295
  H     -0.05673019     -1.38030060     -5.09243710
  C     -1.93359717      1.95797088     -5.24904330
  H     -0.96612261      1.83891596     -5.74688507
  H     -2.69923125      1.89787702     -6.02715038
  C     -1.97377861      3.33637162     -4.59450477
  H     -1.86247375      4.11528475     -5.35072426
  H     -2.91561618      3.49315805     -4.06735518
  H     -1.16054464      3.43524267     -3.87209265
  C     -3.95052530      0.62325096     -3.60534940
  H     -4.07293491      1.36228334     -2.80734566
  H     -4.21960658     -0.34540370     -3.17268320
  C     -4.92751197      0.95241798     -4.73311550
  H     -5.94839017      0.87158365     -4.35519202
  H     -4.78203861      1.96906055     -5.09766463
  H     -4.82042185      0.26306845     -5.57067839
  P      3.52203677      1.28661660     -2.53581196
  C      3.20788551      2.01783811     -4.23416634
  H      2.77865337      3.01382022     -4.09259576
  H      4.15915025      2.14181213     -4.76069740
  C      2.26355292      1.20476565     -5.11606100
  H      2.19592492      1.65803815     -6.10672139
  H      2.61259840      0.17764700     -5.22390687
  H      1.26542353      1.18037175     -4.67649265
  C      4.89348658      0.07850719     -3.00802417
  H      4.43269181     -0.71673354     -3.60331079
  H      5.64272903      0.56040694     -3.64243129
  C      5.57694984     -0.54900162     -1.79494009
  H      6.29110253     -1.30868999     -2.11656440
  H      6.11014586      0.20448637     -1.21392580
  H      4.83533661     -1.02263355     -1.14601650
  C      4.50106004      2.70386204     -1.78511176
  H      4.81237652      2.38745832     -0.78423860
  H      3.79133262      3.52427845     -1.63359843
  C      5.71846935      3.23291600     -2.54313403
  H      6.16570924      4.05323902     -1.97874322
  H      6.47314387      2.45699046     -2.66916484
  H      5.43897127      3.60971609     -3.52679487

