#B3LYP/6-31+G(d) OPT FREQ

146, Energy =   -192.64075707 au

0 1
 Co      0.87730642     -2.18983163      0.00156073
 Co     -0.05778188      1.98422076      0.10883731
 Co     -0.98206617     -0.41711585     -0.10283887
 Co     -0.79014454     -0.44418528      2.32170309
 Co      1.61670228     -0.00975096      1.16249004
 Co      1.17990751      0.57121875     -1.93899223
 Te      2.35473079      1.89210536     -0.21717549
 Te     -2.08923781      1.30256489      1.23836890
 Te     -1.20741799      1.18114565     -1.89301121
 Te      1.07028272     -2.02780184      2.43547983
 Te     -1.30419398     -2.50356300      1.02515026
 Te     -0.10424288     -1.50251495     -2.10603365
 Te      0.48579482      1.72187902      2.43536952
 Te      2.77341060     -0.84026822     -0.81651959
  P     -2.47527428     -3.28915531     -1.62464853
  C     -2.68097305     -3.30838329     -3.51325372
  H     -1.68208851     -3.40554594     -3.94701298
  H     -3.27855874     -4.15898567     -3.85158893
  C     -3.30505305     -2.01770088     -4.03845851
  H     -3.30398892     -2.01299908     -5.13005091
  H     -4.33573355     -1.91862425     -3.69687128
  H     -2.73486256     -1.15363992     -3.69046352
  C     -4.15812323     -4.08086918     -1.20744509
  H     -4.93802451     -3.43711649     -1.62524025
  H     -4.27867984     -5.06751966     -1.66468036
  C     -4.37325661     -4.19124020      0.30114841
  H     -5.37372854     -4.57009451      0.51819787
  H     -3.64326403     -4.86679994      0.74891461
  H     -4.26200730     -3.21407969      0.77402467
  C     -1.41420075     -4.82066470     -1.44291821
  H     -1.59312928     -5.21372172     -0.43818696
  H     -0.37270608     -4.48468381     -1.45990401
  C     -1.58056785     -5.95645769     -2.45242397
  H     -0.97301784     -6.80802807     -2.14015528
  H     -2.61805973     -6.28535808     -2.51626105
  H     -1.25029837     -5.65219163     -3.44542814
  P     -3.61767813      2.37133072     -0.96825896
  C     -4.94452606      1.10779159     -0.56588047
  H     -5.05745305      1.08083132      0.52111444
  H     -5.90697495      1.39817266     -0.99632727
  C     -4.58755367     -0.29156843     -1.05715282
  H     -5.33474954     -1.01264079     -0.72286410
  H     -4.54557273     -0.31300658     -2.14534258
  H     -3.61001052     -0.59914433     -0.66909987
  C     -4.20647529      2.80784168     -2.71878366
  H     -4.11906407      1.89900932     -3.32206228
  H     -5.25522996      3.11471322     -2.74808066
  C     -3.33384957      3.89476288     -3.34374369
  H     -3.61605139      4.06002788     -4.38481103
  H     -3.43642067      4.83671118     -2.80347430
  H     -2.28468403      3.59390185     -3.31386470
  C     -4.30359542      3.84931771     -0.00278847
  H     -3.70850679      4.72012485     -0.29490644
  H     -4.07128131      3.65564594      1.04906104
  C     -5.78728217      4.19584178     -0.13103456
  H     -6.00926857      5.06934756      0.48485416
  H     -6.05234415      4.43183760     -1.16163044
  H     -6.41445285      3.37182329      0.20892811
  P      2.86181703      3.27506276      2.27870888
  C      3.79918268      4.81013678      1.65884102
  H      3.16247498      5.67730640      1.85692342
  H      4.72697117      4.94891665      2.22082380
  C      4.12437582      4.77484549      0.16871967
  H      4.62870806      5.69689465     -0.12662401
  H      4.77352225      3.93178821     -0.06826390
  H      3.21249423      4.67289857     -0.42016703
  C      4.35056787      2.17237081      2.57712448
  H      4.86585488      2.05020380      1.62035687
  H      5.05183291      2.65427956      3.26427311
  C      3.99217906      0.79164714      3.11717934
  H      4.88784046      0.17649795      3.21562008
  H      3.50914572      0.86366492      4.09215441
  H      3.29563922      0.28269480      2.42634409
  C      2.55817450      3.85974779      4.06249348
  H      2.30039162      2.96241766      4.63441377
  H      1.64807360      4.46832065      4.03573455
  C      3.64500299      4.63216151      4.81086844
  H      3.32146298      4.81195731      5.83805734
  H      4.58025747      4.07282648      4.84364253
  H      3.83454029      5.59787971      4.34218495
  P      2.31605522     -3.80567289     -0.23408534
  C      3.18557196     -4.14677738     -1.86502162
  H      3.87504479     -3.31765369     -2.05060969
  H      3.77831908     -5.06380796     -1.80444350
  C      2.22545467     -4.25946196     -3.04726821
  H      2.78648300     -4.34973273     -3.97870523
  H      1.58260246     -5.13422195     -2.94484213
  H      1.59038046     -3.37289330     -3.11085071
  C      1.80955438     -5.58161091      0.18158497
  H      1.19674939     -5.97073744     -0.63602039
  H      2.69198277     -6.22495659      0.24531105
  C      1.01642717     -5.68865641      1.48271124
  H      0.72889681     -6.72594878      1.66214815
  H      1.60753536     -5.34038978      2.33077353
  H      0.11032327     -5.08215932      1.43085181
  C      3.79769459     -3.66354819      0.91234511
  H      3.43162147     -3.84162283      1.92878505
  H      4.13521799     -2.62328411      0.88624564
  C      5.00282614     -4.56810799      0.65413383
  H      5.73277772     -4.42856009      1.45361664
  H      4.72044164     -5.62073057      0.63340781
  H      5.48379318     -4.31832013     -0.29153896
  P     -0.99326717     -0.55967111      4.46735195
  C     -1.40700731     -2.23743084      5.20465552
  H     -0.54123919     -2.89045768      5.05435178
  H     -1.57956907     -2.16145281      6.28193223
  C     -2.62940764     -2.88071784      4.55045660
  H     -2.79365398     -3.87801298      4.96164966
  H     -3.52492546     -2.28253108      4.72316507
  H     -2.47843833     -2.97123087      3.47171392
  C     -2.29534679      0.47262337      5.35499551
  H     -3.27888748      0.11869978      5.02943594
  H     -2.24692871      0.32236379      6.43736102
  C     -2.18952601      1.96416696      5.04270033
  H     -2.98923996      2.51118238      5.54478030
  H     -1.23138839      2.36645867      5.37360986
  H     -2.27654959      2.13136862      3.96654109
  C      0.54106392     -0.13798403      5.45916794
  H      0.78567575      0.90783536      5.24716123
  H      1.35999266     -0.73350405      5.04164945
  C      0.50821478     -0.34113633      6.97347391
  H      1.45836100     -0.01346136      7.39916510
  H     -0.28898755      0.23990488      7.43682194
  H      0.36665628     -1.39132249      7.22811655
  P      1.32085024      1.96002557     -3.61340498
  C      0.19231499      1.79465815     -5.10703704
  H     -0.80964210      2.12198002     -4.81516072
  H      0.52138172      2.42976500     -5.93415820
  C      0.11056669      0.34537927     -5.58689377
  H     -0.61223478      0.25658084     -6.39945799
  H      1.08031141     -0.00077915     -5.94681172
  H     -0.20383320     -0.30795246     -4.76961457
  C      2.96657911      2.09704006     -4.53399323
  H      3.07179339      1.21421433     -5.17230488
  H      2.98926365      2.97156687     -5.19079450
  C      4.15416151      2.14848703     -3.57382789
  H      5.09289193      2.14022901     -4.13004285
  H      4.12173766      3.05136346     -2.96247519
  H      4.13832208      1.28581522     -2.90366521
  C      1.06234027      3.76115273     -3.15464200
  H      1.95512854      4.08322014     -2.60843089
  H      0.23612288      3.80223716     -2.43551632
  C      0.78749438      4.75510281     -4.28230892
  H      0.74167775      5.76541123     -3.87196028
  H      1.57490567      4.72875594     -5.03599419
  H     -0.16493783      4.54193575     -4.76758539

