#B3LYP/6-31+G(d) OPT FREQ

146, Energy =   -192.68736303 au

0 1
 Co      0.87165246     -2.26566015      0.03251677
 Co     -0.19504226      2.15363106      0.16410059
 Co     -1.70329508     -0.86408629     -0.45494524
 Co      0.40717611     -0.06085052      2.15148404
 Co      1.32628158      0.27218093     -0.17836737
 Co      0.45626865     -0.06573410     -2.41199257
 Te      1.27615825      2.13388723     -1.74436961
 Te     -1.79863010      0.75581688      1.37879144
 Te     -1.50390007      1.26334725     -1.72334760
 Te      2.52969195     -1.08638645      1.40549715
 Te     -0.97012232     -2.00258342      1.59808062
 Te     -0.44867840     -2.28573705     -1.99780010
 Te      1.76714399      1.88984860      1.56871763
 Te      2.40366348     -1.35645593     -1.60648401
  P      0.29483589     -0.19270732     -4.55556825
  C     -1.37516378      0.05080660     -5.37617875
  H     -1.67347173      1.09446454     -5.23286707
  H     -1.31029013     -0.12660247     -6.45354195
  C     -2.45924009     -0.85053469     -4.78895075
  H     -3.41532693     -0.65753460     -5.27838191
  H     -2.20711334     -1.90311530     -4.91936906
  H     -2.56863905     -0.65301446     -3.72211653
  C      0.81022451     -1.78119305     -5.40993861
  H      0.22194118     -2.58832188     -4.96082741
  H      0.56509485     -1.75580740     -6.47586314
  C      2.29290334     -2.10730808     -5.23666306
  H      2.50521491     -3.10424678     -5.62628111
  H      2.91716215     -1.38773506     -5.76747227
  H      2.56639214     -2.08348501     -4.17806003
  C      1.29600321      1.08704930     -5.50415467
  H      2.34344278      0.96167456     -5.21071800
  H      0.99351366      2.07034981     -5.12750058
  C      1.21083968      1.09185753     -7.03097906
  H      1.87769367      1.85928860     -7.42830114
  H      1.51249692      0.13070345     -7.44670111
  H      0.19855269      1.31378696     -7.36811771
  P      1.07008620     -4.29492799      0.71164274
  C      2.51274972     -5.25414341     -0.03642355
  H      3.44509161     -4.81332210      0.33105279
  H      2.49836427     -6.29995435      0.28303324
  C      2.51131589     -5.20209151     -1.56412076
  H      3.37746172     -5.73556283     -1.95917386
  H      1.60756352     -5.65993301     -1.96856846
  H      2.55609476     -4.16566345     -1.90738476
  C     -0.29022375     -5.54782054      0.36340030
  H     -0.65478472     -5.34209109     -0.64879881
  H      0.11743894     -6.56329047      0.35323460
  C     -1.47717888     -5.50069021      1.32403531
  H     -2.29395131     -6.11208144      0.93647339
  H     -1.20103210     -5.87857560      2.30861276
  H     -1.83347261     -4.47556009      1.44233982
  C      1.40778467     -4.57840081      2.53318983
  H      0.52150711     -4.24271482      3.08103824
  H      2.21683243     -3.89496631      2.81316138
  C      1.77466520     -5.99078377      2.98905058
  H      1.83879185     -6.01467346      4.07848531
  H      1.02568263     -6.71762442      2.67524985
  H      2.74091234     -6.29315458      2.58563531
  P      3.63911436      2.58759912     -0.57587974
  C      4.55701060      2.83053623     -2.21981638
  H      4.00593198      3.57530161     -2.80206361
  H      5.57303627      3.20764031     -2.07580185
  C      4.62564390      1.53288345     -3.02564832
  H      5.10584127      1.71123448     -3.98921329
  H      5.19341143      0.77007595     -2.49138326
  H      3.62269816      1.14330228     -3.20496646
  C      4.99181668      1.58927423      0.29881153
  H      4.63942416      0.54945287      0.29108916
  H      5.91701023      1.62459213     -0.28148572
  C      5.28711777      1.97420902      1.74443802
  H      5.95349928      1.23341533      2.18997657
  H      5.76485525      2.95174078      1.80731624
  H      4.36222128      1.99758015      2.32297619
  C      3.78130976      4.32223281      0.11070011
  H      3.63578811      4.25285792      1.19079770
  H      2.92436000      4.87843080     -0.28160985
  C      5.05873124      5.11055565     -0.18068860
  H      5.04593565      6.03961877      0.39215431
  H      5.94698361      4.54625477      0.10285237
  H      5.13062203      5.36500428     -1.23766583
  P      0.32360912     -0.20410943      4.30548428
  C     -1.26333935     -0.82712537      5.09404155
  H     -1.50642043     -1.78455701      4.62089379
  H     -1.12183961     -1.01694824      6.16198711
  C     -2.44847632      0.12111237      4.91623214
  H     -3.36141526     -0.34843741      5.28666136
  H     -2.29059447      1.05116255      5.46337943
  H     -2.58727872      0.36444432      3.85916101
  C      0.63643448      1.28105934      5.41489250
  H     -0.08967162      2.05390494      5.14142983
  H      0.45535541      1.03079905      6.46437065
  C      2.04004126      1.86327561      5.26063468
  H      2.13236625      2.78102085      5.84370161
  H      2.79909016      1.15795721      5.60030305
  H      2.23392977      2.09841651      4.21045575
  C      1.52644153     -1.46458453      5.00802254
  H      2.51274667     -1.23640330      4.59016084
  H      1.23994249     -2.43446959      4.58716103
  C      1.64813722     -1.60673013      6.52566108
  H      2.36681383     -2.39509599      6.75702027
  H      2.00002259     -0.68214360      6.98229892
  H      0.69325779     -1.87494818      6.97739285
  P     -1.05673172      4.04013091      0.81379721
  C     -2.35436894      4.81478814     -0.30597588
  H     -3.22918367      4.15659808     -0.32316899
  H     -2.68358623      5.78284533      0.08217012
  C     -1.85078991      4.99884339     -1.73785630
  H     -2.63417713      5.43918363     -2.35704242
  H     -0.97861703      5.65338413     -1.76479270
  H     -1.57450110      4.03272727     -2.16630809
  C      0.02639625      5.55939420      1.07747711
  H      0.65295137      5.67294439      0.18645218
  H     -0.57722672      6.46831222      1.15732618
  C      0.93539025      5.44474985      2.30055321
  H      1.68153139      6.24098101      2.29135558
  H      0.36142791      5.51978019      3.22430522
  H      1.45408729      4.48268286      2.29896942
  C     -2.01248159      4.00896215      2.42781092
  H     -1.32604159      3.66012204      3.20698650
  H     -2.76835419      3.22317762      2.32570293
  C     -2.69400888      5.29269672      2.90188476
  H     -3.17100103      5.11164933      3.86691445
  H     -1.97723306      6.10421600      3.02461671
  H     -3.46240984      5.61242623      2.19822110
  P     -3.68980047     -1.70843600     -0.69750322
  C     -4.02455679     -3.50423739     -1.14051942
  H     -3.49916725     -4.13016849     -0.41229820
  H     -5.09093384     -3.72980460     -1.04711456
  C     -3.56004101     -3.88975046     -2.54268822
  H     -3.67539451     -4.96417611     -2.69459201
  H     -4.13750638     -3.36577790     -3.30504180
  H     -2.50457647     -3.63245456     -2.67132788
  C     -4.97811581     -0.89685611     -1.80108173
  H     -4.67304868     -1.03697791     -2.84214487
  H     -5.94879434     -1.38886825     -1.69019391
  C     -5.12870573      0.60014342     -1.53696353
  H     -5.84541055      1.03479672     -2.23574116
  H     -5.47696103      0.78712223     -0.52047033
  H     -4.16721358      1.10440576     -1.66942478
  C     -4.56380871     -1.65660632      0.96789289
  H     -4.41804719     -0.64948321      1.37433207
  H     -4.00358072     -2.32734773      1.62906330
  C     -6.04907129     -2.00953858      1.04232383
  H     -6.37381458     -1.97423703      2.08395435
  H     -6.65268663     -1.30069489      0.47602924
  H     -6.24131999     -3.01237471      0.66115649

