#B3LYP/6-31+G(d) OPT FREQ

146, Energy =   -192.73392263 au

0 1
 Co      0.02064521     -2.03718957      0.63780633
 Co     -0.26807187      2.00487766     -0.93454661
 Co     -2.23453999      0.34025673      0.65754121
 Co      0.51495453      0.65170467      1.95767209
 Co      2.01061686     -0.03596874     -0.67110169
 Co     -0.86063506     -0.80687104     -1.98516940
 Te      0.87406842      0.73008580     -2.67675958
 Te     -1.06482615      2.40151351      1.31524526
 Te     -2.40271273      1.02166500     -1.66487968
 Te      2.12328185     -1.11833717      1.49053943
 Te     -1.25920098     -0.99233389      2.42188834
 Te     -2.23766184     -1.88499009     -0.27179644
 Te      1.72209954      2.12912520      0.45676882
 Te      1.15133709     -2.10613761     -1.53351846
  P      0.69202053      0.77376618      4.09558621
  C      2.16549030      1.84978398      4.59056911
  H      2.07728539      2.80417036      4.06136594
  H      2.16308452      2.06764254      5.66152326
  C      3.49801386      1.19868732      4.22278796
  H      4.31002401      1.92293221      4.30251016
  H      3.71523456      0.35987023      4.88495338
  H      3.46627531      0.82054358      3.19900674
  C      1.02323161     -0.66962469      5.25106763
  H      1.65650398     -1.37417108      4.70241593
  H      1.60457401     -0.32849765      6.11307648
  C     -0.21180458     -1.41349755      5.75636642
  H      0.08914564     -2.34676104      6.23536661
  H     -0.76260138     -0.81545874      6.48225549
  H     -0.87950028     -1.64698050      4.92496975
  C     -0.69384406      1.67095608      4.98558566
  H     -1.55872785      1.00034127      4.98439692
  H     -0.97137238      2.52630643      4.36029756
  C     -0.44407800      2.16096824      6.41216063
  H     -1.38159485      2.52131259      6.83960090
  H     -0.06324072      1.36266578      7.04881528
  H      0.27089558      2.98338625      6.42290377
  P     -3.96282156      1.33108342      1.45087439
  C     -5.51088470      0.24956304      1.35112072
  H     -5.39425547     -0.58330530      2.05216031
  H     -6.39587975      0.81345055      1.65863788
  C     -5.74520376     -0.31560048     -0.04877149
  H     -6.65256075     -0.92177559     -0.06266312
  H     -5.85029116      0.48593713     -0.78134883
  H     -4.90330053     -0.94523837     -0.34517361
  C     -4.66874794      2.88778467      0.67056325
  H     -4.46616475      2.81396945     -0.40351227
  H     -5.75654283      2.90659176      0.78792927
  C     -4.09567520      4.20733541      1.18496949
  H     -4.41476261      5.02585743      0.53742663
  H     -4.43790201      4.41672283      2.19856805
  H     -3.00497257      4.17225169      1.19169090
  C     -3.99779788      1.74446370      3.27903529
  H     -3.29766324      2.57018307      3.43697815
  H     -3.57762657      0.88144833      3.80686573
  C     -5.34462961      2.09824551      3.91012321
  H     -5.18642722      2.43320903      4.93693846
  H     -5.84333654      2.89789418      3.36275043
  H     -6.00439824      1.23113153      3.93404343
  P      4.03955446      0.63618473     -0.86485695
  C      4.51841767      2.17963389     -1.81960245
  H      3.98182814      3.01953077     -1.36829867
  H      5.58740575      2.38037075     -1.70233932
  C      4.19458084      2.12521795     -3.31174711
  H      4.34459667      3.10864122     -3.76034398
  H      4.83793945      1.40958135     -3.82470600
  H      3.15536481      1.82652787     -3.46723878
  C      5.14479928     -0.61757282     -1.74362382
  H      4.77608885     -0.72786558     -2.76824442
  H      6.17601064     -0.26067145     -1.81151952
  C      5.11347096     -1.98884585     -1.07109051
  H      5.71504838     -2.70112752     -1.63799409
  H      5.50324947     -1.93742586     -0.05387029
  H      4.08686137     -2.35973973     -1.02792701
  C      5.00530603      0.93836140      0.71369386
  H      4.76723294      0.11405540      1.39337100
  H      4.58451708      1.84247693      1.16553173
  C      6.52454143      1.08433052      0.63473522
  H      6.91402963      1.30254327      1.63085496
  H      6.99236497      0.16544343      0.28246089
  H      6.81544457      1.89892101     -0.02832609
  P     -1.40225913     -2.41609551     -3.29465141
  C     -0.27470669     -2.76243381     -4.76431442
  H      0.64006326     -3.21961158     -4.37469316
  H     -0.74415801     -3.48135216     -5.44155658
  C      0.10184477     -1.51637006     -5.56209781
  H      0.80451380     -1.77895671     -6.35471014
  H     -0.77961957     -1.06343860     -6.01777273
  H      0.57288633     -0.77469196     -4.91269998
  C     -3.02870577     -2.25483003     -4.24265162
  H     -2.89870008     -1.48619480     -5.01103166
  H     -3.26110193     -3.18962824     -4.76118472
  C     -4.20697999     -1.85914404     -3.35691772
  H     -5.12095518     -1.79469023     -3.94959792
  H     -4.35809141     -2.58720802     -2.55886615
  H     -4.02037784     -0.88402671     -2.90011150
  C     -1.59043825     -4.15482411     -2.62154237
  H     -2.52790792     -4.17881760     -2.05902813
  H     -0.79030276     -4.30878895     -1.89166320
  C     -1.57686658     -5.32002823     -3.61044304
  H     -1.80697558     -6.24397422     -3.07662470
  H     -2.32117911     -5.18714409     -4.39591473
  H     -0.59651239     -5.43158083     -4.07319515
  P     -0.72746657      3.38847923     -2.51171260
  C     -1.65439288      3.17439242     -4.12738120
  H     -2.70841032      3.02650943     -3.87599715
  H     -1.57951691      4.10599357     -4.69689589
  C     -1.21071667      2.02557633     -5.02710308
  H     -1.74405232      2.07414662     -5.97846008
  H     -0.13968206      2.07038780     -5.22225517
  H     -1.43356504      1.07026386     -4.55252372
  C      0.73513561      4.38878371     -3.17235916
  H      1.37321924      3.69318892     -3.72583856
  H      0.40283546      5.15289191     -3.88055579
  C      1.55968794      5.04434203     -2.06711149
  H      2.47951744      5.46201515     -2.47963103
  H      0.99916475      5.84762804     -1.58730460
  H      1.82495267      4.30961140     -1.30180207
  C     -1.80866668      4.75586964     -1.78304878
  H     -1.36988291      5.03943226     -0.82079952
  H     -2.77386657      4.29235639     -1.55438701
  C     -2.05376844      6.02022755     -2.60633838
  H     -2.69286033      6.69977650     -2.03920703
  H     -1.12028113      6.53744939     -2.82640551
  H     -2.55384996      5.78991167     -3.54678078
  P      0.73887090     -3.92909610      1.34815914
  C      2.40942258     -4.64560999      0.88587378
  H      3.14351754     -3.84078104      0.99277180
  H      2.68687293     -5.42974504      1.59643446
  C      2.49836040     -5.21793114     -0.52707158
  H      3.53442415     -5.46867178     -0.76066469
  H      1.89314006     -6.11949369     -0.62492609
  H      2.14829399     -4.48230736     -1.25488274
  C     -0.34332189     -5.44329421      1.02867310
  H     -0.35895419     -5.62482066     -0.05033371
  H      0.07991181     -6.33703286      1.49522376
  C     -1.78140858     -5.24276571      1.50262340
  H     -2.39074054     -6.10665631      1.23214460
  H     -1.82509609     -5.11193444      2.58450247
  H     -2.21183345     -4.35448760      1.03154228
  C      0.89798330     -3.98846449      3.21900619
  H      0.01911329     -3.48373375      3.63181139
  H      1.75902609     -3.36058935      3.47140811
  C      1.05036647     -5.34474883      3.90665114
  H      1.21942780     -5.18759731      4.97357030
  H      0.15008318     -5.94790366      3.79247843
  H      1.89629401     -5.90492218      3.50822057

