146
Energy =   -192.73282690 au
 Co      1.41916594     -1.70836342      0.23619534
 Co     -1.07445410      1.88760037     -0.35042161
 Co     -1.59160753     -1.31742611     -0.24394714
 Co     -0.17275310      0.20287758      2.01736098
 Co      2.02944656      1.25522893     -0.22318166
 Co      0.25476148     -0.00191356     -2.33567009
 Te      0.69790385      2.37587072     -1.91685843
 Te     -2.43253432      0.50584612      1.11045275
 Te     -2.12363353      0.35963454     -1.91628616
 Te      2.24827732     -0.02305833      1.82332202
 Te     -0.45160810     -2.20568540      1.70418109
 Te      0.09501332     -2.34814761     -1.70280820
 Te      0.61813719      2.41413711      1.34235387
 Te      2.48085408     -0.66365337     -1.69293623
  P     -0.73015425     -0.01294924      4.08221049
  C     -2.29385123     -0.90173285      4.61594739
  H     -2.34417868     -1.83046109      4.03809590
  H     -2.22359087     -1.18412237      5.67059706
  C     -3.58635788     -0.11619476      4.40697528
  H     -4.44662121     -0.76159996      4.59242617
  H     -3.64038504      0.73751997      5.08310601
  H     -3.64378789      0.25013275      3.37900479
  C     -0.85686820      1.52456942      5.16448033
  H     -1.68906179      2.13020161      4.79316675
  H     -1.09357130      1.26129373      6.19911533
  C      0.41255981      2.37404926      5.12467376
  H      0.26466643      3.29769371      5.68644755
  H      1.25875856      1.83771480      5.55533087
  H      0.66028635      2.63313891      4.09159913
  C      0.51509717     -1.03662854      5.04838856
  H      1.51401476     -0.73075523      4.72048447
  H      0.38453689     -2.06976355      4.70927490
  C      0.46921398     -1.00817071      6.57606785
  H      1.19175487     -1.72551827      6.96951938
  H      0.72867032     -0.02209891      6.95994201
  H     -0.51706941     -1.27859660      6.95326991
  P      3.92549105      1.94418841     -0.95618686
  C      4.24828410      2.29267049     -2.77241056
  H      3.28496638      2.57029825     -3.21353958
  H      4.90351359      3.16275273     -2.87484592
  C      4.84545627      1.14042597     -3.57905646
  H      4.82084784      1.38558842     -4.64254522
  H      5.88034725      0.95280135     -3.29122944
  H      4.27014380      0.22685996     -3.42007922
  C      5.53734350      1.10413805     -0.48595624
  H      5.51387446      0.09577943     -0.90989268
  H      6.39008925      1.62261771     -0.93398606
  C      5.74933755      0.99111950      1.02314834
  H      6.62989694      0.38030541      1.23027906
  H      5.89546283      1.97204933      1.47664095
  H      4.88197579      0.52491425      1.49670466
  C      4.19284249      3.68503555     -0.26462246
  H      3.94439018      3.65146906      0.80163761
  H      3.43523235      4.32344654     -0.73252616
  C      5.56481203      4.34123395     -0.42782950
  H      5.52192938      5.36389184     -0.04956149
  H      6.32706752      3.80372747      0.13415412
  H      5.86931749      4.37940971     -1.47306668
  P      2.77722550     -3.03709451      1.24031751
  C      4.62403704     -2.88604245      0.91524360
  H      4.93965922     -1.88794629      1.23393229
  H      5.17872904     -3.60824355      1.52055318
  C      5.00725059     -3.08525793     -0.55068713
  H      6.07094692     -2.88275733     -0.68860061
  H      4.80520312     -4.10821532     -0.87072284
  H      4.43927784     -2.40501025     -1.18959618
  C      2.55007653     -4.85380177      0.77299729
  H      2.48026647     -4.90329575     -0.31852286
  H      3.42261198     -5.44508828      1.06493823
  C      1.28930388     -5.47812164      1.36938225
  H      1.06631937     -6.42559168      0.87609293
  H      1.41191610     -5.66454175      2.43660895
  H      0.43579874     -4.80831215      1.24158129
  C      2.78607828     -3.16146203      3.10981024
  H      1.75493676     -3.36416859      3.41550705
  H      3.03156166     -2.16697049      3.49357438
  C      3.70736954     -4.18374043      3.77559760
  H      3.52986978     -4.17411773      4.85273670
  H      3.52008258     -5.19295908      3.41031603
  H      4.75623609     -3.94233403      3.60431572
  P     -2.98525954     -2.94231602     -0.15627492
  C     -2.48226407     -4.74669749     -0.08726903
  H     -1.74746676     -4.84811193      0.71694393
  H     -3.34357609     -5.36411829      0.18522517
  C     -1.88292118     -5.29076399     -1.38230743
  H     -1.48970171     -6.29511357     -1.21657003
  H     -2.63467686     -5.33818975     -2.17071656
  H     -1.06654951     -4.64858704     -1.72221695
  C     -4.31293819     -3.05657914     -1.48768626
  H     -3.80894833     -3.24161037     -2.44185343
  H     -4.97386762     -3.90886863     -1.30551199
  C     -5.14297727     -1.78112465     -1.62194995
  H     -5.85149253     -1.88060500     -2.44591715
  H     -5.69978311     -1.57343444     -0.70765200
  H     -4.48965879     -0.92905858     -1.82879920
  C     -4.01622347     -2.86633615      1.41284380
  H     -4.29684722     -1.81915255      1.56726470
  H     -3.33782010     -3.12243695      2.23390439
  C     -5.27006146     -3.73425785      1.51483951
  H     -5.70508971     -3.61964609      2.50940980
  H     -6.01819817     -3.43481440      0.78193688
  H     -5.04034786     -4.78884947      1.36487554
  P     -0.27974789      0.73585222     -4.27901039
  C     -1.37428204      2.21292084     -4.65764743
  H     -1.37584041      2.84486417     -3.76506389
  H     -0.92623612      2.80775844     -5.45849600
  C     -2.82101366      1.89797583     -5.03348819
  H     -3.39883169      2.82347572     -5.06580232
  H     -2.88245438      1.42101807     -6.01163129
  H     -3.26884717      1.23792558     -4.28945414
  C     -1.02888037     -0.56774459     -5.42187201
  H     -2.01707607     -0.82838624     -5.03188282
  H     -1.17119119     -0.17374797     -6.43146535
  C     -0.18247034     -1.83790446     -5.48522948
  H     -0.67383188     -2.58579855     -6.10945689
  H      0.80424595     -1.63331087     -5.90203244
  H     -0.05170175     -2.25398320     -4.48247002
  C      1.25573745      1.22342421     -5.27276703
  H      2.04107870      0.49283221     -5.05311122
  H      1.59575404      2.17527760     -4.85206118
  C      1.12334591      1.36615096     -6.78870303
  H      2.05319339      1.76737024     -7.19625682
  H      0.93517546      0.40228737     -7.26074223
  H      0.31425757      2.04613430     -7.05622504
  P     -2.12815115      3.58788147      0.41856466
  C     -3.95056970      3.68493779     -0.05926480
  H     -4.48096107      2.89813382      0.48618120
  H     -4.37803972      4.64500600      0.24281709
  C     -4.18650196      3.49080267     -1.55577142
  H     -5.25642450      3.48967999     -1.76968869
  H     -3.71892704      4.28965372     -2.13283133
  H     -3.76579898      2.53767080     -1.88505305
  C     -1.62331703      5.31675641     -0.14739889
  H     -1.94620689      5.44163599     -1.18585274
  H     -2.14892198      6.07303854      0.44368663
  C     -0.12036200      5.57304699     -0.07723109
  H      0.10107437      6.59960060     -0.37433803
  H      0.25833821      5.41032392      0.93254850
  H      0.40672791      4.89451447     -0.75247974
  C     -2.24763650      3.87861776      2.26633644
  H     -1.29980870      4.32215320      2.58328513
  H     -2.30539670      2.89670557      2.74451619
  C     -3.39668097      4.73913330      2.78955173
  H     -3.27223761      4.88747829      3.86393838
  H     -3.41330944      5.71818990      2.31051965
  H     -4.35761006      4.25266318      2.62434989
