146
Energy =   -192.73526715 au
 Co      2.01994398     -0.39094763      0.65821985
 Co     -2.00559007      0.90161965     -0.81282010
 Co     -0.61589185     -1.95899731     -0.02450908
 Co     -0.66731317      0.42794775      1.88203528
 Co      0.74944488      2.16094306     -0.51214006
 Co      0.58325544     -0.32233692     -2.26389533
 Te     -0.57632475      1.78245508     -2.55462540
 Te     -2.55090177     -0.76579679      0.85012748
 Te     -1.70980904     -1.13891517     -2.04676016
 Te      1.40986406      1.71021668      1.77732627
 Te      0.55641945     -1.68153751      2.09023412
 Te      1.63504299     -2.10418251     -0.97782913
 Te     -1.22584131      2.55430591      0.82714004
 Te      2.55843679      0.78689281     -1.40018015
  P     -1.36890913      0.14300359      3.88870649
  C     -2.16467505     -1.43523647      4.51366647
  H     -1.57736576     -2.26806263      4.11506463
  H     -2.08904342     -1.48637389      5.60376370
  C     -3.62838346     -1.62006719      4.11864418
  H     -3.95164088     -2.63469685      4.35723469
  H     -4.26963491     -0.91793278      4.65201510
  H     -3.75349675     -1.45918121      3.04521243
  C     -2.61106806      1.39311758      4.55913344
  H     -3.52402496      1.30496148      3.96142289
  H     -2.88131575      1.15904461      5.59277787
  C     -2.11817974      2.83650886      4.47107091
  H     -2.90219208      3.51998400      4.80135002
  H     -1.23717472      2.99261398      5.09428566
  H     -1.85696104      3.08297715      3.43859201
  C      0.02366297      0.28437185      5.14534125
  H      0.67093553      1.10758377      4.82447302
  H      0.61766682     -0.62970966      5.03992132
  C     -0.32808300      0.47866533      6.62013361
  H      0.58785244      0.45635601      7.21353064
  H     -0.81608356      1.43837289      6.78680074
  H     -0.98598319     -0.31154554      6.98195803
  P     -3.78986064      2.08532533     -0.74719701
  C     -5.16337075      1.30458618     -1.78650468
  H     -5.46820843      0.37063114     -1.30335423
  H     -6.04160053      1.95467889     -1.82593701
  C     -4.70892728      0.99740431     -3.21283116
  H     -5.51439617      0.51387258     -3.76791026
  H     -4.42585706      1.91126063     -3.73697814
  H     -3.84661215      0.32603512     -3.19861362
  C     -3.84973947      3.81653276     -1.48043709
  H     -3.18489635      3.80956214     -2.35097366
  H     -4.85633364      4.03304303     -1.85095007
  C     -3.41425875      4.94491826     -0.54777039
  H     -3.31087383      5.87318151     -1.11227743
  H     -4.14483111      5.10217332      0.24585410
  H     -2.45470432      4.70838148     -0.08534878
  C     -4.69647372      2.29514958      0.87767541
  H     -4.09029376      2.95563922      1.50437599
  H     -4.69280799      1.31726625      1.37152166
  C     -6.12998053      2.82329319      0.83148873
  H     -6.48255420      3.00046641      1.84919942
  H     -6.18999204      3.76222197      0.28114401
  H     -6.79860683      2.10234332      0.36152686
  P      0.78539424     -1.62367655     -3.95510330
  C      2.52695928     -2.11805873     -4.47850912
  H      2.90225131     -2.82641632     -3.73332900
  H      2.50221972     -2.63217799     -5.44339385
  C      3.50166795     -0.94710037     -4.57543499
  H      4.50312176     -1.31340788     -4.80746690
  H      3.19817200     -0.25099684     -5.35837173
  H      3.54181872     -0.40377923     -3.62824877
  C      0.17753982     -0.97297579     -5.62053338
  H      0.86561185     -0.18729095     -5.94824284
  H      0.21503933     -1.76523918     -6.37396887
  C     -1.23256439     -0.39080339     -5.56777128
  H     -1.53531619     -0.04570112     -6.55777565
  H     -1.95081073     -1.13515477     -5.22159412
  H     -1.26272522      0.45831081     -4.88029251
  C     -0.02659336     -3.31207941     -3.94587477
  H     -1.10152504     -3.15006521     -4.06466080
  H      0.11269845     -3.73104085     -2.94487005
  C      0.43462715     -4.34539861     -4.97351346
  H     -0.21302000     -5.22201488     -4.91386212
  H      0.38077318     -3.95195821     -5.98889346
  H      1.45746908     -4.66620954     -4.77695373
  P      3.73636811     -0.24951359      1.93905160
  C      4.96023627      1.17118141      1.85092180
  H      4.40659061      2.08849797      2.07326621
  H      5.72586603      1.05991469      2.62462943
  C      5.65159495      1.32414505      0.49712854
  H      6.22518568      2.25227619      0.47574150
  H      6.33209085      0.49259765      0.31065629
  H      4.91415169      1.35165253     -0.30860714
  C      4.93168754     -1.69460147      1.71545554
  H      5.33276602     -1.64231659      0.69836373
  H      5.78177860     -1.61706041      2.39853326
  C      4.24481188     -3.04756477      1.89357633
  H      4.95356714     -3.85734976      1.71320085
  H      3.84330425     -3.15516021      2.90190600
  H      3.41970185     -3.14462307      1.18421535
  C      3.45099220     -0.28101719      3.79193583
  H      2.65931433     -1.01273984      3.98204387
  H      3.03773527      0.69700456      4.05873210
  C      4.63284737     -0.58809785      4.71085127
  H      4.31544952     -0.48035725      5.74972939
  H      4.98682369     -1.60903077      4.56950707
  H      5.46421684      0.09527446      4.53761426
  P      1.53755833      3.74055705     -1.73462425
  C      1.83773145      3.86610986     -3.58074764
  H      0.85919883      3.94293775     -4.06285853
  H      2.37960569      4.79480109     -3.78497182
  C      2.60043846      2.71258155     -4.22424080
  H      2.80780618      2.94369777     -5.27083784
  H      3.54428728      2.53098299     -3.71088856
  H      2.00545874      1.80047002     -4.18089675
  C      3.19493272      4.44421578     -1.15190961
  H      3.95131769      3.67730148     -1.34612088
  H      3.47471261      5.32682361     -1.73382107
  C      3.21231809      4.78950748      0.33505406
  H      4.22501537      5.04494631      0.65107710
  H      2.55905221      5.63724958      0.54563621
  H      2.86831848      3.93783698      0.92860913
  C      0.40852931      5.24220021     -1.54975542
  H      0.18054670      5.34764166     -0.48393591
  H     -0.53504903      4.97847594     -2.03915052
  C      0.88498818      6.59073433     -2.08895461
  H      0.11781025      7.34452650     -1.90170704
  H      1.80291693      6.91184172     -1.59724076
  H      1.06280636      6.54702895     -3.16324298
  P     -0.94785363     -4.04363681      0.36974053
  C      0.45807797     -5.17924654      0.87570273
  H      1.02927326     -4.65422036      1.64862065
  H      0.05935664     -6.08996649      1.33244031
  C      1.40369966     -5.57565558     -0.25581144
  H      2.25586305     -6.12492657      0.14793534
  H      0.89867505     -6.20738080     -0.98703288
  H      1.77698055     -4.68391881     -0.76514941
  C     -1.78848627     -5.13839357     -0.91174179
  H     -1.12105872     -5.22351518     -1.77446732
  H     -1.93727785     -6.15079620     -0.52601474
  C     -3.12147648     -4.56503586     -1.38872171
  H     -3.53481340     -5.18643353     -2.18477130
  H     -3.84418255     -4.51804387     -0.57342374
  H     -2.97735056     -3.55352737     -1.77849282
  C     -2.06418018     -4.29823892      1.85890781
  H     -2.88267498     -3.57586152      1.77739853
  H     -1.47688822     -3.99700797      2.73303610
  C     -2.65419585     -5.68491760      2.11394896
  H     -3.19641242     -5.67386770      3.06139292
  H     -3.35399833     -5.96611454      1.32736724
  H     -1.87736884     -6.44721093      2.17647283
