#B3LYP/6-31+G(d) OPT FREQ

146, Energy =   -192.65933663 au

0 1
 Co     -1.23296339     -1.66948842     -0.21711357
 Co     -0.12778777      1.65088994     -0.16183363
 Co     -2.71700098      0.43362778     -0.05716350
 Co     -0.66283105     -0.56059392      2.52072919
 Co      1.13999740     -1.21809476      0.60196191
 Co     -0.51525741     -0.61523141     -2.27966427
 Te      1.60506416      0.21354654     -1.30318744
 Te     -1.62013067      1.54759265      1.81714304
 Te     -1.71011532      1.49130145     -2.00110688
 Te     -0.31883865     -2.82242142      1.70540413
 Te     -2.78788244     -1.37056022      1.61516234
 Te     -2.87531964     -1.14622474     -1.90701150
 Te      1.18582438      0.89516642      1.76800092
 Te      0.72949239     -2.51913978     -1.38451186
  P     -0.01171167     -0.26087135     -4.34770794
  C     -1.40948333     -0.24499530     -5.60281081
  H     -2.04919850      0.61614642     -5.38295161
  H     -1.02077147     -0.11160377     -6.61642897
  C     -2.25898065     -1.51478933     -5.56025849
  H     -3.08373604     -1.43719081     -6.27050034
  H     -1.66303237     -2.39215191     -5.81466497
  H     -2.67514534     -1.65682254     -4.55929016
  C      1.15720745     -1.44595889     -5.22246417
  H      0.71120996     -2.44482507     -5.17741620
  H      1.25632818     -1.18979237     -6.28135613
  C      2.54303709     -1.50609969     -4.58148352
  H      3.15785414     -2.25217785     -5.08768014
  H      3.04706842     -0.54120734     -4.64409027
  H      2.46047830     -1.78256805     -3.52823570
  C      0.77970782      1.39156846     -4.73446368
  H      1.68271655      1.46300968     -4.12025266
  H      0.09418121      2.16102316     -4.36310015
  C      1.14442976      1.71147910     -6.18374677
  H      1.60824847      2.69864081     -6.22691332
  H      1.85265351      0.98612704     -6.58370294
  H      0.26087963      1.72326935     -6.82163217
  P      0.07626516      3.81023562     -0.57216844
  C      0.65009476      4.49697881     -2.22442022
  H     -0.03874751      4.12859226     -2.99133951
  H      0.61337406      5.58960373     -2.25146089
  C      2.06707056      4.03654712     -2.56505646
  H      2.30528965      4.27239375     -3.60333534
  H      2.79963351      4.52658816     -1.92302533
  H      2.15799981      2.95821974     -2.42430184
  C      1.21040800      4.81994329      0.54863990
  H      2.22222819      4.41419129      0.44093817
  H      1.25385301      5.86809582      0.23885006
  C      0.81608099      4.73692729      2.02300269
  H      1.53971913      5.27772161      2.63532848
  H     -0.17085062      5.16874947      2.19185206
  H      0.79623384      3.69600848      2.35207157
  C     -1.53730898      4.75482789     -0.39356924
  H     -1.99190717      4.43681921      0.55104755
  H     -2.19797703      4.38919535     -1.18662937
  C     -1.51407326      6.28281648     -0.43759222
  H     -2.53464671      6.66046608     -0.35177697
  H     -0.93038310      6.69386253      0.38560255
  H     -1.09528085      6.64689996     -1.37562183
  P     -4.63612601      1.34917339      0.31176221
  C     -5.95694431      0.26133439      1.08850330
  H     -5.62701857      0.00275564      2.09975670
  H     -6.90484829      0.79930138      1.17988038
  C     -6.19598660     -1.03065749      0.30808956
  H     -6.92339830     -1.65363270      0.83104020
  H     -6.57573233     -0.81981508     -0.69211628
  H     -5.26523487     -1.59326768      0.21380343
  C     -5.62596097      1.94885851     -1.17298822
  H     -5.68960623      1.11650154     -1.88166807
  H     -6.65095533      2.19545689     -0.88010508
  C     -5.00204294      3.14483361     -1.89008088
  H     -5.59367170      3.40265583     -2.77020664
  H     -4.95617637      4.01657795     -1.23671731
  H     -3.98727680      2.90226153     -2.21474664
  C     -4.74804829      2.83306637      1.45493273
  H     -4.04531108      3.58352562      1.07909807
  H     -4.34660531      2.51174826      2.42161063
  C     -6.10825909      3.49600040      1.67303866
  H     -5.99083585      4.34181102      2.35297423
  H     -6.52230392      3.86862175      0.73655201
  H     -6.82111742      2.80091881      2.11600709
  P      3.73144882      1.23874606      0.47106813
  C      4.99110426      1.97783349     -0.75699530
  H      4.80059838      3.05481317     -0.79312888
  H      6.01791900      1.84043828     -0.40767956
  C      4.88098049      1.41043071     -2.17082223
  H      5.48874840      1.99959092     -2.86005833
  H      5.22774812      0.37700577     -2.20370369
  H      3.84681957      1.42843246     -2.51685914
  C      4.50261085     -0.47459020      0.54702097
  H      4.47493867     -0.88930688     -0.46464896
  H      5.55534313     -0.39690787      0.83317437
  C      3.80984577     -1.45761936      1.48245280
  H      4.30316391     -2.43000440      1.44513605
  H      3.82302388     -1.09950000      2.51199072
  H      2.74672931     -1.59353442      1.17538982
  C      4.44338457      1.96796874      2.07645251
  H      3.98901242      1.39160279      2.88890653
  H      4.03113177      2.97935308      2.16084406
  C      5.95439966      2.03519104      2.30079529
  H      6.15543847      2.38870311      3.31412390
  H      6.41886935      1.05545607      2.18627328
  H      6.42595998      2.72702508      1.60271486
  P      0.51524196     -5.00082436     -0.17591566
  C      0.97977158     -5.91018747     -1.77197000
  H      1.86221548     -5.42292897     -2.19650447
  H      1.23050418     -6.96036597     -1.60134158
  C     -0.16095606     -5.82352268     -2.78643284
  H      0.12189482     -6.30926706     -3.72165571
  H     -1.05938553     -6.30810167     -2.40177697
  H     -0.39640245     -4.77834388     -2.99615301
  C     -0.31341118     -6.48664042      0.69355297
  H     -1.30830040     -6.58621266      0.24863722
  H      0.22673191     -7.41244399      0.47509914
  C     -0.46528690     -6.34028012      2.20490129
  H     -1.04591901     -7.17429648      2.60353977
  H      0.50803375     -6.33132410      2.69651490
  H     -0.97735120     -5.40895499      2.45007856
  C      2.18738624     -4.98965572      0.66150432
  H      2.03437321     -4.66543322      1.69472583
  H      2.77771900     -4.20579903      0.17689344
  C      2.99664839     -6.28702875      0.66067146
  H      3.92577206     -6.13313491      1.21265017
  H      2.44792244     -7.09809261      1.13907333
  H      3.25153906     -6.59150215     -0.35424481
  P     -0.03975148     -0.96810908      4.56618954
  C     -1.13751139     -2.11696580      5.57125927
  H     -1.04767888     -3.12472363      5.15294065
  H     -0.82032440     -2.16709945      6.61678989
  C     -2.60440904     -1.68851055      5.51340571
  H     -3.22928677     -2.40791189      6.04519766
  H     -2.74049703     -0.70726152      5.97022888
  H     -2.94335251     -1.63411737      4.47559562
  C      0.12949302      0.43339550      5.81425073
  H     -0.82761952      0.96459200      5.84007762
  H      0.30770049      0.05172308      6.82384655
  C      1.22902309      1.42800621      5.44399865
  H      1.17620047      2.30728969      6.08804386
  H      2.21570271      0.97688237      5.55459357
  H      1.11994590      1.74988267      4.40522806
  C      1.61206602     -1.83466363      4.76951553
  H      2.37482427     -1.19149709      4.31790439
  H      1.57237429     -2.73876910      4.15228102
  C      2.06347871     -2.21803450      6.17897255
  H      3.04196479     -2.69901822      6.12672894
  H      2.15002450     -1.34076196      6.81979361
  H      1.36526065     -2.91688667      6.63944558

