#B3LYP/6-31+G(d) OPT FREQ

146, Energy =   -192.73126047 au

0 1
 Co     -0.27735511     -2.00987562     -0.91016699
 Co      0.08913702      2.01323237      0.90035815
 Co     -1.94777432     -0.27152430      0.95007048
 Co      0.95322449     -0.79999355      1.87942796
 Co      2.01857608      0.01276207     -0.86286518
 Co     -0.74163907      0.93562720     -1.83256017
 Te      1.23589647      2.26822833     -1.24060697
 Te     -0.69329617      0.71132262      2.80346054
 Te     -2.15088313      1.89567371     -0.11344819
 Te      1.89006002     -2.21648090      0.14678895
 Te     -0.81433213     -2.38221910      1.44444285
 Te     -2.35700862     -0.81166071     -1.38712466
 Te      2.32296507      1.15199318      1.26091222
 Te      0.70334415     -0.77772035     -2.75705157
  P     -3.53808925     -0.55277761      2.35884860
  C     -3.33661808     -1.40750606      4.01590349
  H     -2.41861935     -1.01762193      4.46667730
  H     -4.16165158     -1.13004096      4.67878012
  C     -3.25442328     -2.93108304      3.95347533
  H     -2.98062108     -3.32771125      4.93258957
  H     -4.21069015     -3.36446202      3.65948413
  H     -2.49552655     -3.23908566      3.23067913
  C     -5.10268304     -1.41949536      1.75477138
  H     -4.85451071     -2.46585190      1.55510190
  H     -5.87462441     -1.41948558      2.52922764
  C     -5.65656537     -0.80395610      0.47133567
  H     -6.51422597     -1.37882680      0.11823039
  H     -5.97243061      0.22736796      0.63291849
  H     -4.89021671     -0.80997668     -0.30920359
  C     -4.24611369      1.08041039      2.96409514
  H     -4.26564188      1.76452275      2.10935832
  H     -3.50966193      1.48613569      3.66520613
  C     -5.62088978      1.08801120      3.63174587
  H     -5.82418120      2.08749236      4.02087648
  H     -6.40664083      0.83637775      2.92007950
  H     -5.66711788      0.38456197      4.46324061
  P     -0.59356849      3.94352821      1.55491632
  C     -0.94840066      5.32860574      0.33699585
  H     -1.70626084      4.96166021     -0.36158200
  H     -1.37825482      6.19251507      0.85220745
  C      0.27901902      5.78765426     -0.44928710
  H     -0.02437379      6.45114368     -1.26082475
  H      0.97396970      6.32807865      0.19414314
  H      0.80278066      4.92958923     -0.87780457
  C      0.65099887      4.84940831      2.65016592
  H      1.55646124      5.01909987      2.05931515
  H      0.27475012      5.83174213      2.94827642
  C      1.03257964      4.04195244      3.88825066
  H      1.77911370      4.57872611      4.47580613
  H      0.16423048      3.85142195      4.51972466
  H      1.45340621      3.08153612      3.58629899
  C     -2.14490882      4.05333434      2.60061964
  H     -2.11048301      3.21989786      3.30906865
  H     -2.98579748      3.85371600      1.92896055
  C     -2.42256149      5.34122284      3.37516660
  H     -3.40067157      5.26589421      3.85394124
  H     -1.67700788      5.50208168      4.15340307
  H     -2.43276918      6.21116275      2.71848430
  P     -1.02550671     -3.86781217     -1.65964129
  C     -0.67971383     -4.35131689     -3.44327498
  H      0.40470512     -4.43605853     -3.56899514
  H     -1.11063623     -5.33298023     -3.66059325
  C     -1.21268600     -3.34136027     -4.45740270
  H     -0.98769915     -3.67430224     -5.47191323
  H     -2.29218207     -3.21976219     -4.36167266
  H     -0.73579008     -2.37080656     -4.29907278
  C     -2.84428325     -4.31963616     -1.60135112
  H     -3.38556268     -3.52314426     -2.12139950
  H     -3.03131741     -5.24982602     -2.14673122
  C     -3.40883927     -4.44264492     -0.18772925
  H     -4.49121541     -4.57585703     -0.22837635
  H     -2.97526691     -5.29467146      0.33623613
  H     -3.18873406     -3.54370437      0.38853365
  C     -0.24008609     -5.32844954     -0.77540936
  H     -0.47632207     -5.21727214      0.28832734
  H      0.84535564     -5.20315331     -0.85732515
  C     -0.61271263     -6.73996116     -1.22830238
  H     -0.11117883     -7.46834900     -0.58845597
  H     -1.68710608     -6.90813669     -1.15760343
  H     -0.30007055     -6.91940675     -2.25677846
  P      2.32927640     -0.88880556      3.52061896
  C      4.16686531     -1.18813446      3.27278391
  H      4.52162466     -0.43727049      2.55985768
  H      4.70987297     -1.02451227      4.20826013
  C      4.51033920     -2.57988822      2.74333216
  H      5.55795057     -2.61389286      2.43939808
  H      4.35003247     -3.33958798      3.50886663
  H      3.88931280     -2.82415287      1.87844203
  C      1.94860105     -2.30681212      4.70941390
  H      2.08221793     -3.24592320      4.16349335
  H      2.64759161     -2.32251059      5.54983344
  C      0.51239984     -2.25539633      5.22687813
  H      0.31185603     -3.11279783      5.87130488
  H      0.32973776     -1.34289778      5.79544787
  H     -0.18494317     -2.28235555      4.38673587
  C      2.41424679      0.57037113      4.69464643
  H      1.39333236      0.94742063      4.81303543
  H      2.97523880      1.35250201      4.17329716
  C      3.02556284      0.36037364      6.07950379
  H      3.09263412      1.32224795      6.59114643
  H      2.40886970     -0.30273763      6.68561244
  H      4.02914041     -0.06053049      6.01541287
  P     -1.02953977      2.18502138     -3.54587685
  C     -2.53110730      1.70201991     -4.58002085
  H     -3.43123418      1.89022986     -3.98570881
  H     -2.59578482      2.32630963     -5.47559902
  C     -2.51940514      0.23359435     -5.00168516
  H     -3.39787427      0.01104139     -5.60960646
  H     -1.62614546      0.00018692     -5.58240990
  H     -2.53842129     -0.40921590     -4.11867233
  C      0.22669955      2.31114363     -4.93513839
  H      0.60653827      1.29970362     -5.11102125
  H     -0.26406771      2.63206129     -5.85918729
  C      1.40890619      3.23691699     -4.65515051
  H      2.16802479      3.11407141     -5.42940107
  H      1.09528740      4.28093550     -4.64291220
  H      1.85516671      3.00439362     -3.68619439
  C     -1.43723828      3.98774909     -3.23629436
  H     -0.53929395      4.45153630     -2.81872997
  H     -2.19260318      4.01149254     -2.44347270
  C     -1.92813655      4.83063481     -4.41356626
  H     -2.02037522      5.87151447     -4.09803000
  H     -1.23169468      4.78883945     -5.25077127
  H     -2.90524455      4.49259523     -4.75790939
  P      3.76627018     -0.77882279     -1.81467632
  C      4.44467636      0.42865667     -3.10549739
  H      4.35377924      1.43685984     -2.68804366
  H      5.50676974      0.24811513     -3.28845736
  C      3.70690788      0.37780870     -4.44193919
  H      3.96358427      1.24983303     -5.04534424
  H      3.97510865     -0.51919452     -5.00077632
  H      2.62647543      0.36477288     -4.28298466
  C      3.92775622     -2.36181185     -2.80981290
  H      2.99151159     -2.47999942     -3.36463451
  H      4.72390675     -2.23782896     -3.55035171
  C      4.19529907     -3.64530876     -2.02638633
  H      4.13119529     -4.50297270     -2.69844479
  H      5.18715655     -3.63474056     -1.57473280
  H      3.45676007     -3.76739298     -1.23311014
  C      5.24772077     -0.89573548     -0.65668078
  H      5.05483469     -1.74473804      0.00547686
  H      5.22812537     -0.00454081     -0.01987865
  C      6.64599701     -1.04415118     -1.25755574
  H      7.35785960     -1.27261382     -0.46214268
  H      6.68277428     -1.84997249     -1.99025153
  H      6.96546295     -0.12134042     -1.74128327

