#B3LYP/6-31+G(d) OPT FREQ

146, Energy =   -192.73273279 au

0 1
 Co     -1.76097450     -1.53141473      0.16210868
 Co      1.17642407      1.78425075     -0.22394808
 Co     -1.77970750      1.32811344     -0.89131496
 Co     -0.53423626      0.53777923      2.03825823
 Co      1.47048350     -1.22140878      0.52805583
 Co      0.21421568     -0.62790001     -2.16234446
 Te      2.40820343      0.04736577     -1.34118194
 Te     -0.82852401      2.65862089      0.90576511
 Te      0.10183803      1.77018921     -2.39763313
 Te     -0.28909509     -1.90711377      2.04919189
 Te     -2.80069919      0.47177252      1.12259670
 Te     -2.19876152     -0.75615223     -2.10087963
 Te      1.88338862      0.78363241      1.86057858
 Te      0.09627809     -2.68541954     -0.85684316
  P      3.31776145     -2.03065918      1.25362407
  C      4.94367497     -1.10092011      1.14999147
  H      4.74558961     -0.07497040      1.47683937
  H      5.66351166     -1.52864280      1.85407944
  C      5.58135013     -1.06758761     -0.23706179
  H      6.43700315     -0.39032695     -0.23552856
  H      5.92393167     -2.05849651     -0.53611484
  H      4.85946274     -0.71085231     -0.97539928
  C      3.87752820     -3.71234255      0.60982070
  H      4.11126488     -3.60569898     -0.45379502
  H      4.79627123     -4.03783782      1.10544500
  C      2.80015858     -4.78477250      0.75971300
  H      3.13420991     -5.71943045      0.30638812
  H      2.57176339     -4.97011059      1.80987293
  H      1.88126338     -4.46633923      0.25929229
  C      3.28709372     -2.34161307      3.10651131
  H      2.30334203     -2.75553875      3.35113633
  H      3.33063445     -1.35486782      3.57915586
  C      4.36409920     -3.23339559      3.72358184
  H      4.25879243     -3.22211102      4.81004187
  H      4.26426193     -4.26420693      3.38493146
  H      5.36611729     -2.88247486      3.47649246
  P     -3.51873393     -2.65958683      0.63617890
  C     -3.44875243     -4.43900233      0.01704143
  H     -2.65121614     -4.96069955      0.55601793
  H     -4.38531726     -4.95857432      0.23764835
  C     -3.17203751     -4.53401820     -1.48204538
  H     -3.16284376     -5.57855544     -1.79756699
  H     -3.93254739     -4.00305574     -2.05592463
  H     -2.19855495     -4.09565264     -1.70817133
  C     -5.23176553     -2.22077174      0.00314704
  H     -5.10989630     -1.86524723     -1.02499287
  H     -5.85838663     -3.11658336     -0.04473691
  C     -5.96022945     -1.14923368      0.81292546
  H     -6.83865048     -0.80251021      0.26623417
  H     -6.28640141     -1.54048714      1.77668703
  H     -5.30258995     -0.29641586      0.99470094
  C     -3.85687229     -2.98029130      2.45139946
  H     -4.15362158     -2.02701246      2.89717270
  H     -2.89922415     -3.24827606      2.91033285
  C     -4.89597597     -4.04117197      2.81557146
  H     -5.06192609     -4.02799843      3.89434953
  H     -5.84896912     -3.85224469      2.32178784
  H     -4.55287091     -5.03739681      2.53733415
  P      1.90832448      3.77038440      0.10498992
  C      1.11378853      5.26667636     -0.70553768
  H      0.05246055      5.25149975     -0.43799760
  H      1.53490383      6.19059945     -0.29842590
  C      1.24376112      5.29622150     -2.22770997
  H      0.60353726      6.07754372     -2.64070101
  H      2.27211246      5.49931066     -2.52795086
  H      0.94160826      4.33744778     -2.65538473
  C      3.68152663      3.99631576     -0.50429598
  H      3.68499656      3.84296331     -1.58797887
  H      4.03728004      5.01418902     -0.32374672
  C      4.64422912      2.99027987      0.12396542
  H      5.64868481      3.12624098     -0.28006307
  H      4.68635739      3.10719057      1.20740416
  H      4.31605856      1.97263778     -0.09864044
  C      2.03201665      4.41028876      1.86212550
  H      2.34873722      3.57061666      2.48907310
  H      1.01232222      4.66156448      2.17046650
  C      2.94250586      5.60534072      2.14244774
  H      2.82165767      5.91076705      3.18340851
  H      3.98967797      5.34851330      1.98489499
  H      2.69413681      6.45640388      1.50807810
  P      1.28926159     -1.73570321     -3.64901982
  C      2.37511799     -0.76321908     -4.84321311
  H      3.23794362     -0.39514187     -4.27965447
  H      2.74907703     -1.41942248     -5.63409105
  C      1.66858422      0.42511378     -5.49126598
  H      2.36815287      0.97579598     -6.12229151
  H      0.83176603      0.09503503     -6.10820719
  H      1.28381973      1.10308322     -4.72622348
  C      0.29078651     -2.69353430     -4.93585362
  H     -0.14450124     -1.97306128     -5.63533543
  H      0.94861560     -3.34671755     -5.51680985
  C     -0.83891891     -3.52004044     -4.32848711
  H     -1.37821772     -4.05762218     -5.11007960
  H     -0.45015164     -4.24354991     -3.61069759
  H     -1.54244294     -2.86419994     -3.80918030
  C      2.49700105     -3.06908392     -3.12452346
  H      1.90172223     -3.93342658     -2.81697663
  H      3.00524127     -2.71038384     -2.22492698
  C      3.55438996     -3.52706714     -4.12848767
  H      4.09875654     -4.37641685     -3.71149953
  H      3.10330524     -3.84154027     -5.06991544
  H      4.27175566     -2.73236854     -4.33254760
  P     -2.84944829      2.41189033     -2.39792735
  C     -4.70821204      2.48261092     -2.04275758
  H     -4.85100149      2.94311410     -1.05991031
  H     -5.21913776      3.11063935     -2.77724412
  C     -5.35649048      1.10145696     -2.03992457
  H     -6.40853488      1.17702947     -1.76029806
  H     -5.28923772      0.63664664     -3.02405720
  H     -4.84958040      0.45364699     -1.32490673
  C     -2.94352634      1.98595489     -4.22483438
  H     -2.82144569      0.90033453     -4.29566054
  H     -3.94530601      2.21668396     -4.59981815
  C     -1.91840304      2.65247965     -5.14031071
  H     -1.95706569      2.19049477     -6.12840631
  H     -2.11905226      3.71800356     -5.25115636
  H     -0.91254741      2.52883004     -4.73831480
  C     -2.47740030      4.25622153     -2.42776689
  H     -1.51517237      4.37938503     -2.93220489
  H     -2.31702947      4.56562052     -1.38906404
  C     -3.50178665      5.19276980     -3.06877356
  H     -3.07728183      6.19562233     -3.14475240
  H     -3.77403472      4.86046729     -4.07044554
  H     -4.40736079      5.25319947     -2.46546947
  P     -0.65570743      0.27948557      4.16869735
  C     -2.05541245     -0.68202553      4.97124051
  H     -2.04785293     -1.68756219      4.54036889
  H     -1.87742551     -0.79116344      6.04512412
  C     -3.43480560     -0.05747440      4.76443585
  H     -4.21127651     -0.75348165      5.08618943
  H     -3.53730532      0.86122737      5.34277027
  H     -3.59418602      0.18030128      3.70987554
  C     -0.85461448      1.89675579      5.12525843
  H     -1.81046259      2.34301928      4.83383192
  H     -0.90144640      1.71629186      6.20252685
  C      0.25407776      2.89822675      4.81293451
  H      0.09385287      3.82595168      5.36458434
  H      1.23409486      2.50027768      5.07839520
  H      0.25250579      3.12497102      3.74541515
  C      0.79512936     -0.50165649      5.06222869
  H      1.70511457     -0.10650114      4.59990851
  H      0.76570896     -1.56966389      4.82416823
  C      0.90352663     -0.33347912      6.57728755
  H      1.74676006     -0.92266991      6.94253009
  H      1.07728305      0.70798825      6.84672308
  H      0.00319988     -0.67867878      7.08568522

