146
Energy =   -192.73499330 au
 Co     -1.36199316     -1.84438202     -0.17022628
 Co      1.20439929      1.72000372      0.06890887
 Co     -1.81237111      1.17186114     -0.15513283
 Co     -0.39130569     -0.19946329      2.21443805
 Co      1.82769626     -1.25191623      0.37492527
 Co      0.38419360     -0.26274174     -2.13823204
 Te      2.59714417      0.30518509     -1.32579318
 Te     -0.54213730      2.15746891      1.71110162
 Te     -0.30525575      2.03675045     -1.85303872
 Te      0.15799689     -2.52823332      1.58872272
 Te     -2.64775680     -0.49579344      1.38953740
 Te     -2.03604017     -0.36484746     -2.02001861
 Te      1.91785493      0.54118265      2.06294489
 Te      0.65639764     -2.56464510     -1.30100286
  P     -0.70816037     -1.13474332      4.12449705
  C     -1.88194908     -2.56636217      4.43439201
  H     -1.71270086     -3.29747891      3.63793171
  H     -1.62587881     -3.05859882      5.37709476
  C     -3.36539205     -2.20257285      4.46626828
  H     -3.96713838     -3.11300621      4.48360078
  H     -3.60675044     -1.61279894      5.35086608
  H     -3.63313972     -1.62651974      3.57832978
  C     -1.33873011      0.08109655      5.42585089
  H     -2.33128960      0.42009878      5.11334410
  H     -1.45532872     -0.40134505      6.40001967
  C     -0.43306421      1.30455580      5.55764390
  H     -0.86428521      2.01745957      6.26226973
  H      0.55915525      1.02372895      5.91270975
  H     -0.32482185      1.79820859      4.58800030
  C      0.83206505     -1.80492285      4.96550173
  H      1.63361892     -1.08327021      4.78129837
  H      1.10904707     -2.71578836      4.42468855
  C      0.78485728     -2.10558744      6.46339564
  H      1.72997351     -2.55897649      6.76786498
  H      0.64432918     -1.19388331      7.04345555
  H     -0.01877709     -2.79985567      6.70892904
  P      3.89998982     -1.48310591      0.90898050
  C      4.82539449     -2.62901805     -0.27513674
  H      4.89679644     -2.12343457     -1.24328556
  H      5.84431007     -2.81231247      0.07569852
  C      4.12316574     -3.97213755     -0.46499438
  H      4.64198581     -4.56284044     -1.22174326
  H      4.10913240     -4.53779076      0.46765234
  H      3.09099447     -3.82045624     -0.79154594
  C      4.29369894     -2.38442136      2.52500480
  H      3.48860876     -3.10886205      2.68707406
  H      5.22097713     -2.95698068      2.43003885
  C      4.38971565     -1.48059727      3.75301546
  H      4.33289281     -2.07898758      4.66387160
  H      5.32985058     -0.92908016      3.76156887
  H      3.57182667     -0.75737962      3.75899678
  C      5.11674543     -0.05993721      0.98623237
  H      4.83602945      0.56355499      1.83939204
  H      4.95485884      0.55096727      0.09323384
  C      6.60344893     -0.40162474      1.08372717
  H      7.16937926      0.51197463      1.27514368
  H      6.80340059     -1.10191191      1.89458976
  H      6.96731705     -0.83595521      0.15268116
  P     -3.21004211      2.73767360      0.29814777
  C     -3.90144910      3.11434468      2.00166363
  H     -3.04685623      3.22261107      2.67668406
  H     -4.42039330      4.07760933      1.98205847
  C     -4.85298030      2.06501395      2.57207950
  H     -5.09373265      2.30919396      3.60819386
  H     -5.78115474      2.02595846      2.00112318
  H     -4.38976941      1.07672396      2.54531290
  C     -4.82915442      2.59959313     -0.66275835
  H     -5.33456568      1.68724321     -0.33052018
  H     -5.49622184      3.43585992     -0.43617395
  C     -4.61032130      2.50568463     -2.17185989
  H     -5.56361179      2.35364543     -2.68063092
  H     -4.15067483      3.41501739     -2.56088260
  H     -3.95491098      1.66223155     -2.40562019
  C     -2.63927944      4.46731711     -0.16137048
  H     -2.07349034      4.38381435     -1.09509361
  H     -1.92104208      4.76643517      0.60900039
  C     -3.68404318      5.57212065     -0.31693529
  H     -3.17720398      6.52111733     -0.50180449
  H     -4.34628605      5.37247670     -1.15883940
  H     -4.28980481      5.68076600      0.58274948
  P      1.29217462     -1.06159274     -3.91537810
  C      1.75918137      0.29765410     -5.14146098
  H      2.56875714      0.88644523     -4.69857373
  H      2.13762179     -0.13172670     -6.07287452
  C      0.59074638      1.22606355     -5.46771116
  H      0.92476046      2.03370528     -6.12107011
  H     -0.20988176      0.68146267     -5.97012434
  H      0.18707444      1.66611467     -4.55200824
  C      0.25877951     -2.13280264     -5.07648387
  H     -0.75689794     -1.72409834     -5.07105486
  H      0.62807014     -2.04919877     -6.10298046
  C      0.19210136     -3.60905828     -4.68986699
  H     -0.57270040     -4.11535616     -5.28121837
  H      1.14686726     -4.10435384     -4.86675941
  H     -0.05395913     -3.71673567     -3.63189949
  C      2.90151439     -2.02006362     -3.88310340
  H      2.70886260     -2.96245118     -3.36282013
  H      3.59591248     -1.45673614     -3.25242915
  C      3.58327807     -2.31797935     -5.21824293
  H      4.43537024     -2.97794590     -5.04515523
  H      2.90611779     -2.81264412     -5.91422252
  H      3.95239461     -1.40417607     -5.68350465
  P     -3.16802891     -2.90508555     -0.63127010
  C     -3.03863862     -4.10422193     -2.08499956
  H     -2.05263613     -4.57740714     -2.03258637
  H     -3.78429941     -4.89900170     -1.99992721
  C     -3.19623104     -3.43945249     -3.45131453
  H     -2.92340586     -4.14082607     -4.24138381
  H     -4.22666504     -3.12224671     -3.61357674
  H     -2.55681781     -2.55818942     -3.52732941
  C     -4.87240096     -2.21268364     -1.00508613
  H     -4.72908370     -1.37350411     -1.69243891
  H     -5.45121089     -2.96998671     -1.54326064
  C     -5.69950714     -1.72991938      0.18469843
  H     -6.60266099     -1.23433120     -0.17595500
  H     -5.99451078     -2.56038318      0.82599713
  H     -5.12632394     -1.02120607      0.78330906
  C     -3.55053295     -4.11442962      0.76673277
  H     -3.84396979     -3.50581849      1.62796154
  H     -2.60556678     -4.59412053      1.04460732
  C     -4.60577801     -5.19724336      0.53879719
  H     -4.81902820     -5.69766785      1.48520010
  H     -5.53605559     -4.77574077      0.15896646
  H     -4.25201977     -5.94778378     -0.16777128
  P      2.03294662      3.60025575     -0.55599698
  C      2.58190428      3.99871610     -2.30612864
  H      1.76435377      3.70539933     -2.97177524
  H      2.71095305      5.07982083     -2.41494581
  C      3.86599400      3.31052579     -2.76463777
  H      4.01096190      3.47459940     -3.83382196
  H      4.73294512      3.70447646     -2.23344153
  H      3.80712456      2.23514137     -2.58185600
  C      3.60511295      4.07548597      0.37368308
  H      4.36985652      3.33077077      0.13082361
  H      3.98455956      5.04543224      0.04070339
  C      3.41166375      4.08787010      1.88920650
  H      4.36089942      4.29322726      2.38671589
  H      2.69130115      4.84982537      2.18882979
  H      3.04560491      3.11566738      2.23013788
  C      0.94311067      5.10023763     -0.25028513
  H      0.42587038      4.93719994      0.70093692
  H      0.17242525      5.08167503     -1.02773777
  C      1.58812171      6.48604992     -0.22810411
  H      0.80776929      7.24397919     -0.13787373
  H      2.26320749      6.59244895      0.62048987
  H      2.14772810      6.68269552     -1.14261236
