62
Energy =    -96.26353570 au
  N      5.81817722      0.42227837      2.59838414
  C      5.20185106      0.59532331      3.76059226
  N      5.84256531      1.52577510      4.45596390
  C      6.88844816      1.97870306      3.71373543
  C      6.87257721      1.28758144      2.54401921
  C      5.36378896     -0.46094310      1.55731304
  C      4.30317726      0.23558894      0.71153289
  C      5.43024250      2.07183915      5.71550758
  H      4.36976584      0.01098445      4.09275829
  H      7.53443492      2.75245764      4.08801485
  H      7.52445361      1.33679915      1.69584777
  H      6.22523681     -0.75389624      0.95040799
  H      4.95877280     -1.34850608      2.05379883
  H      3.79486692     -0.48378542      0.07593506
  H      4.75150316      1.00709457      0.08714829
  H      3.57824267      0.71049548      1.36907557
  H      4.42685272      2.48521748      5.59461819
  H      6.13164701      2.85885119      5.99322768
  H      5.41045912      1.29467915      6.47923322
  N      5.15356954      6.19372040      3.76035458
  C      5.25198675      6.12925187      5.08351305
  N      4.38555856      6.97898011      5.62233984
  C      3.70168517      7.59744878      4.62230405
  C      4.18657409      7.10510815      3.45023152
  C      5.97389787      5.44923685      2.83561605
  C      5.14427298      4.51466243      1.96671523
  C      4.17391985      7.24344155      7.01636760
  H      5.98974837      5.51916580      5.58886153
  H      3.00044597      8.38336413      4.85135212
  H      3.91763054      7.33286391      2.43989482
  H      6.51616531      6.16612898      2.20787148
  H      6.69744783      4.89320687      3.43721736
  H      5.80552523      3.91627549      1.34604903
  H      4.47425695      5.07638833      1.31851656
  H      4.54241256      3.84012250      2.57311004
  H      3.44868003      6.54016987      7.42796560
  H      3.77112621      8.26172214      7.10113560
  H      5.11278785      7.15012279      7.55777058
  N      1.83119649     -0.81684354      4.54717233
  C      0.91286257      0.12755922      4.38659784
  N      0.58440161      0.20133364      3.10581264
  C      1.30063309     -0.73767796      2.42936706
  C      2.08184663     -1.38326684      3.33430309
  C      2.38010514     -1.27011904      5.80001054
  C      1.42468439     -2.27298974      6.44158845
  C     -0.40427528      1.09449289      2.58457380
  H      0.52549512      0.76144555      5.15620296
  H      1.20424823     -0.87049320      1.37144700
  H      2.82734809     -2.14880698      3.23106658
  H      3.34990298     -1.73306926      5.58928641
  H      2.51596383     -0.40117515      6.44912551
  H      1.71158370     -2.46454296      7.47226921
  H      1.44410642     -3.21014114      5.89091779
  H      0.40900903     -1.88151410      6.41405141
  H     -1.31849367      0.95009300      3.16607152
  H     -0.58589918      0.86905673      1.53572979
  H     -0.05425522      2.12303195      2.68629318
 Cl      5.12116021     -2.56768587      4.07598752
 Cl      2.78774854     10.15757744      6.34690218
 Cl      2.94838043      2.21205447      3.36636251
 Cl      7.98070560      4.53374823      5.55311544
 Cl     -1.61366633     -0.85429231      5.01690375
