#B3LYP/6-31+G(d) OPT FREQ

62, Energy =    -96.26805484 au

0 1
  N      8.12448999      2.63088403      6.16555166
  C      7.18276210      3.23517230      5.44499734
  N      6.14809536      3.50976136      6.22860692
  C      6.43332540      3.06246772      7.48345359
  C      7.67742739      2.51406923      7.44628435
  C      9.37867518      2.14109934      5.64445744
  C     10.57390594      2.90718772      6.20029482
  C      4.90941566      4.11393301      5.83102629
  H      7.29799110      3.49369967      4.39492845
  H      5.71942359      3.12206858      8.27810890
  H      8.27628288      2.10986207      8.23520957
  H      9.45982732      1.08139725      5.90637223
  H      9.33433615      2.24197868      4.55797798
  H     11.48419785      2.33873350      6.03125234
  H     10.45872785      3.07884542      7.26889644
  H     10.66823114      3.86890765      5.70576346
  H      4.78007762      5.07926980      6.32208258
  H      4.08835673      3.45193380      6.13782627
  H      4.90488949      4.24461278      4.75221329
  N      7.71703362      6.46878073      7.38700102
  C      6.89843181      6.92302677      6.44154493
  N      7.39386670      6.59525986      5.25321832
  C      8.56368856      5.92402793      5.44156250
  C      8.76695815      5.84525196      6.78536192
  C      7.56610333      6.59477870      8.81772934
  C      6.12451891      6.39368835      9.25866654
  C      6.80306575      6.86962679      3.97507326
  H      5.96447153      7.44369247      6.59884478
  H      9.09729422      5.52022806      4.60333789
  H      9.51793323      5.35927096      7.38204651
  H      8.22011264      5.83489317      9.26492945
  H      7.91679791      7.58729702      9.12047654
  H      6.06330367      6.53533488     10.33425277
  H      5.79954886      5.38395774      9.02479046
  H      5.45513994      7.09780420      8.77068384
  H      7.03374684      6.03203106      3.30715671
  H      7.22642161      7.78085625      3.54943398
  H      5.72891850      6.99634735      4.08837276
  N      1.83775147      5.48685954      7.72359359
  C      1.79123329      6.76567642      8.08750315
  N      2.38652189      6.90414000      9.27409894
  C      2.85460990      5.67654797      9.65217915
  C      2.50702094      4.79024574      8.68429798
  C      1.30841171      4.89618098      6.51572838
  C      1.60773909      5.75596616      5.29437255
  C      2.66436777      8.16259351      9.90251218
  H      1.33823336      7.56161005      7.53508121
  H      3.39594566      5.53290629     10.56352779
  H      2.69324854      3.73384363      8.55043408
  H      1.76853445      3.90393000      6.43644921
  H      0.22754958      4.75972585      6.63323956
  H      1.55872669      5.15067211      4.39489955
  H      2.60486344      6.17907342      5.37602197
  H      0.89898734      6.57619723      5.19851533
  H      3.27654445      8.75346141      9.21423219
  H      3.20996787      7.99600323     10.82788176
  H      1.73954737      8.70237055     10.11101573
 Cl      8.23321175      4.19526466      2.61908941
 Cl      3.91033941      8.09704909      6.86684330
 Cl     -8.68532836     34.40599309     -1.00416986
 Cl      2.81725752      1.96682047      7.22973183
 Cl      9.72748607      4.09569919      9.36072751

