#B3LYP/6-31+G(d) OPT FREQ

62, Energy =    -96.23600995 au

0 1
  N      0.47228069      5.34732130      4.11137753
  C     -0.40220589      5.48786447      5.10499301
  N      0.23900208      5.91301326      6.19015958
  C      1.55139288      6.09649843      5.85855910
  C      1.69758470      5.74620029      4.55416014
  C      0.18141727      4.97245369      2.75073875
  C     -0.21623134      6.20872245      1.95035363
  C     -0.40490334      6.23304690      7.42964274
  H     -1.43444604      5.21110648      5.07428110
  H      2.26653498      6.47383944      6.56083150
  H      2.55896627      5.67288900      3.91717834
  H      1.08673761      4.51070702      2.34219744
  H     -0.63495734      4.24671831      2.76130507
  H     -0.61365683      5.91750261      0.98216773
  H      0.64901622      6.84780082      1.79687835
  H     -0.97009059      6.77112950      2.49795905
  H     -1.26928955      6.85928077      7.19781410
  H      0.28478377      6.77831467      8.07068082
  H     -0.73006731      5.31653095      7.92809729
  N      2.33404786      2.09425448      7.26361229
  C      1.98596596      2.93341803      8.24289608
  N      2.21678398      2.33812734      9.42492369
  C      2.58248092      1.04012268      9.17474496
  C      2.67008879      0.89540272      7.83104268
  C      2.38779978      2.42358806      5.85793562
  C      3.71358054      3.08342500      5.51565309
  C      1.79771719      2.88720219     10.68080062
  H      1.83165760      3.98371300      8.11074805
  H      2.75520114      0.33805255      9.96366373
  H      2.94483344      0.04799345      7.23810312
  H      2.26407459      1.50632511      5.28127178
  H      1.55548263      3.09099556      5.63235289
  H      3.71682408      3.34327304      4.45535181
  H      4.53880408      2.40524840      5.71852172
  H      3.85198105      3.99342392      6.09372323
  H      1.99799258      2.17624815     11.47795837
  H      0.72410577      3.08775719     10.61705244
  H      2.32322148      3.82133784     10.88082780
  N      8.72345201      2.06621236      2.87851604
  C      9.54796618      1.07835169      2.54002225
  N     10.51975045      1.00539087      3.44018991
  C     10.32369416      1.96075803      4.39045405
  C      9.19173811      2.62604817      4.03712065
  C      7.50474467      2.44880515      2.20316840
  C      6.28190280      1.93681890      2.95408859
  C     11.60040444      0.06325959      3.39936534
  H      9.50181727      0.42231888      1.67167090
  H     10.99908761      2.08041918      5.23618948
  H      8.69430035      3.44795753      4.50871218
  H      7.46816030      3.53976677      2.14522859
  H      7.53327784      2.03872656      1.19261201
  H      5.38150687      2.39672437      2.55334123
  H      6.35324296      2.20257862      4.00610536
  H      6.20189597      0.85640633      2.86699882
  H     11.55869336     -0.58386636      4.27514452
  H     12.55114244      0.59436554      3.41977354
  H     11.50433102     -0.52453302      2.48371474
 Cl     12.42472173      2.06584681      6.80861804
 Cl     10.30635845     -1.07948386      0.41531135
 Cl      3.41642148      3.98222655      2.31020246
 Cl     -0.45345144      2.86763010      8.29145788
 Cl     -1.81636340      7.72592935      4.81482521

