#B3LYP/6-31+G(d) OPT FREQ

62, Energy =    -96.26155198 au

0 1
  N      6.59855653      1.95965891      3.59960004
  C      6.73722719      2.37920325      4.84894984
  N      6.23592609      3.60037956      4.95816115
  C      5.75022286      3.97677643      3.74311540
  C      5.98006315      2.94558596      2.88962991
  C      7.01614733      0.67454192      3.10866779
  C      5.89631891     -0.34789637      3.27314899
  C      6.14343033      4.36754694      6.16636873
  H      7.19405821      1.81990524      5.63835244
  H      5.28740976      4.93551173      3.59986178
  H      5.76070585      2.84003771      1.84716856
  H      7.30435455      0.78535045      2.05971354
  H      7.90203378      0.38765708      3.67895417
  H      6.27441039     -1.35579406      3.12256372
  H      5.09616718     -0.15910041      2.55984420
  H      5.47903522     -0.26537258      4.27472703
  H      5.54388414      3.81203341      6.88897083
  H      5.66687573      5.32109342      5.93880804
  H      7.13900326      4.53718935      6.57593223
  N      8.58571416      7.84722870      4.31741523
  C      9.91444870      7.78625007      4.31323847
  N     10.27766574      6.51138217      4.24684308
  C      9.15896919      5.73152996      4.21262104
  C      8.09431295      6.57703642      4.25345558
  C      7.77781462      9.04103989      4.36179886
  C      8.06113187      9.93076489      3.15737407
  C     11.63850497      6.05801164      4.22365983
  H     10.63008048      8.60504640      4.31610425
  H      9.21569546      4.65440261      4.16846826
  H      7.03421373      6.40875859      4.24573136
  H      6.73194599      8.71842404      4.37772318
  H      7.99954186      9.58452055      5.28522017
  H      7.44797880     10.82647474      3.21002871
  H      7.82414538      9.40160725      2.23735977
  H      9.10938162     10.22045929      3.13662219
  H     11.77671120      5.35060863      3.40699455
  H     11.87913947      5.54943676      5.15808036
  H     12.28487754      6.92769083      4.09531716
  N      1.76753454      2.93243968      7.06708663
  C      2.41889551      2.13922365      7.90547885
  N      1.89762981      0.92134075      7.86085738
  C      0.85880942      0.93967347      6.98627155
  C      0.77790538      2.19753286      6.48173350
  C      2.11048076      4.29260137      6.72969767
  C      2.66893924      4.34941487      5.31275484
  C      2.33004893     -0.16079960      8.68941834
  H      3.25635800      2.42150394      8.50797788
  H      0.26329736      0.07145724      6.78943175
  H      0.10358619      2.61988346      5.76568364
  H      1.21853316      4.91798157      6.83201335
  H      2.85721253      4.63374331      7.44735848
  H      3.15501973      5.30377935      5.13151338
  H      1.88082634      4.21291260      4.57543221
  H      3.39771710      3.55265635      5.18754319
  H      3.38874604     -0.34681247      8.50336485
  H      1.75047981     -1.05260790      8.46125560
  H      2.17498765      0.13436970      9.73055437
 Cl     12.50966130      9.53632818      3.98382884
 Cl      4.42185523      1.17483729      6.09260879
 Cl      4.80367005      7.16687612      4.46828865
 Cl      9.58594378      2.45353711      4.21031781
 Cl      0.97717263      2.48205503     10.21763960

