#B3LYP/6-31+G(d) OPT FREQ

62, Energy =    -95.94206959 au

0 1
  N      4.39983285      1.83432836      5.13359210
  C      5.66121296      2.27605768      5.06337968
  N      6.36326328      1.41511583      4.31986789
  C      5.53026040      0.42204676      3.88488439
  C      4.28838979      0.68692977      4.39757945
  C      3.29491329      2.52412732      5.80942975
  C      2.21137053      2.92474673      4.82585808
  C      7.73784098      1.60989971      3.87312690
  H      6.03462720      3.19914226      5.46845747
  H      5.86916565     -0.36522454      3.23687018
  H      3.35453049      0.17175784      4.26932771
  H      2.91300918      1.85353713      6.57868578
  H      3.72819977      3.39459698      6.29653416
  H      1.41754037      3.43834702      5.36645653
  H      1.78616762      2.05675913      4.32636525
  H      2.61042876      3.58785945      4.06467211
  H      7.72183161      1.89534438      2.82478120
  H      8.28799362      0.68386953      4.01639119
  H      8.18200748      2.41318412      4.44989764
  N      9.21249487      5.17031399      7.39983652
  C      8.42605245      4.18127111      6.95888656
  N      8.53915857      3.15121825      7.80334105
  C      9.39029906      3.49819761      8.81549510
  C      9.81542266      4.77504188      8.56211692
  C      9.33049409      6.49861166      6.78735972
  C      8.85740084      7.58598020      7.73381970
  C      7.73204054      1.93701594      7.76790959
  H      7.76021327      4.22668876      6.11614889
  H      9.60392511      2.83649145      9.63469235
  H     10.46143169      5.42181954      9.12629314
  H     10.37372373      6.63635399      6.50452451
  H      8.72920477      6.47380286      5.88151151
  H      8.95472555      8.55093774      7.23825628
  H      9.44803968      7.60353714      8.64734616
  H      7.81887928      7.43009023      8.00866749
  H      6.98774445      1.99534816      8.55745652
  H      8.38311242      1.07856101      7.90892382
  H      7.22617197      1.88172860      6.81069775
  N      6.19563878      5.59486970      4.25265519
  C      4.95111912      5.39843356      4.70400649
  N      4.51595395      6.54411527      5.23781354
  C      5.48803573      7.49562592      5.10006326
  C      6.54982715      6.89690855      4.47604536
  C      7.00897749      4.59981646      3.54429402
  C      7.32560484      5.05185609      2.13100659
  C      3.15680680      6.79741610      5.70207623
  H      4.36929503      4.50131286      4.59325210
  H      5.34495888      8.50995937      5.42445798
  H      7.49255424      7.30153354      4.15747344
  H      7.91457263      4.44188931      4.12931818
  H      6.43419792      3.67658647      3.54467045
  H      7.92190970      4.28349516      1.64086353
  H      7.88814727      5.98310555      2.12732591
  H      6.41274845      5.20905329      1.56500988
  H      2.64732245      7.40580329      4.95974585
  H      3.20263585      7.30860155      6.65984113
  H      2.63801805      5.85029710      5.79714492
 Cl      6.81996759      5.29048443      7.52905314
 Cl    -18.21972425     19.25271701     21.35282177
 Cl     14.46783425      7.11672522     -2.57234278
 Cl      6.74602580      7.62165850      2.23077950
 Cl      4.27860717      6.14491066      2.97304304

