62
Energy =    -96.26685629 au
  N     -0.38470237      6.87282050      4.41903798
  C     -1.59331636      6.83183695      4.97772022
  N     -2.05583199      5.58732245      4.92797312
  C     -1.10755889      4.80180880      4.34333707
  C     -0.05504468      5.60282001      4.03257615
  C      0.45551676      8.04783070      4.42069813
  C      1.54553479      7.99607623      3.36414563
  C     -3.29095060      5.11066181      5.48088325
  H     -2.13298711      7.67963367      5.34434227
  H     -1.29019062      3.75065743      4.20783292
  H      0.89192936      5.36139709      3.59533909
  H     -0.19384977      8.91465661      4.25898655
  H      0.88587562      8.14021973      5.42452486
  H      2.11804522      8.91941096      3.39396558
  H      1.11423891      7.88723046      2.37067143
  H      2.22812967      7.16991040      3.54066790
  H     -3.30907748      4.02285289      5.37832696
  H     -4.14195442      5.54515931      4.95505247
  H     -3.34050884      5.38387820      6.53443224
  N      7.09010152      5.33523562      4.18110937
  C      6.59298001      4.36816270      3.40675672
  N      7.59446755      3.77674986      2.75875260
  C      8.76162029      4.36941294      3.12710860
  C      8.44840640      5.34487103      4.02083568
  C      6.32019650      6.16220813      5.07639088
  C      6.47909706      5.69080733      6.51879541
  C      7.50413655      2.69487129      1.81881997
  H      5.54117417      4.15747221      3.32040542
  H      9.69497943      4.00741344      2.71012173
  H      9.07695586      6.03828843      4.53961888
  H      6.65593469      7.19803611      4.97497416
  H      5.27151599      6.08561132      4.77190394
  H      5.89375678      6.32543786      7.17730647
  H      7.52274709      5.72815080      6.82821972
  H      6.12267115      4.66800111      6.61602982
  H      8.52947186      2.42892585      1.52857056
  H      6.93827802      3.00236308      0.94027437
  H      7.01150975      1.83760812      2.27496025
  N      1.28198796      4.47239018      6.77580404
  C      1.60960336      3.52010491      5.90863662
  N      0.65565370      2.59614458      5.89966776
  C     -0.30446879      2.96299191      6.79423657
  C      0.09184793      4.14308427      7.34652835
  C      2.05572380      5.65532748      7.05461264
  C      2.96448128      5.43709815      8.25897899
  C      0.58973243      1.43262292      5.06413180
  H      2.46586361      3.56918608      5.25637810
  H     -1.20863925      2.39672737      6.89663931
  H     -0.39584256      4.80047155      8.03852618
  H      2.64645875      5.88039538      6.16367805
  H      1.34283391      6.46189281      7.25799758
  H      3.51819169      6.34837802      8.46586593
  H      3.67170805      4.63181710      8.06789570
  H      2.37427433      5.18771239      9.13815258
  H     -0.45279896      1.31334899      4.74310009
  H      0.89095876      0.54419599      5.61983246
  H      1.23882957      1.56260827      4.20227132
 Cl     -0.82974429      7.26984190      7.50474866
 Cl      3.42968471      4.99696495      3.76614422
 Cl     20.99560425     32.99809051     25.11369463
 Cl     -2.63250974      1.85962807      4.80303887
 Cl     10.75997192      2.55359370      1.49197812
