#B3LYP/6-31+G(d) OPT FREQ

62, Energy =    -96.26699447 au

0 1
  N      9.00737551      1.18989213      7.41874867
  C      9.43569130      2.43662257      7.24441180
  N      8.73943171      3.24403829      8.03769733
  C      7.83739626      2.48894984      8.73022492
  C      8.00714934      1.19624128      8.33994393
  C      9.51164971      0.00266500      6.76848613
  C     11.03215052     -0.04918488      6.82113487
  C      8.94754475      4.65725530      8.17035805
  H     10.24015832      2.76231143      6.59027694
  H      7.15114421      2.92608820      9.42528148
  H      7.55297065      0.26712665      8.65293445
  H      9.06459286     -0.85266683      7.29210145
  H      9.17432182      0.00234991      5.72753757
  H     11.37900607     -0.95953258      6.34012135
  H     11.36957512     -0.05530511      7.85481790
  H     11.47293367      0.80459427      6.31185171
  H      9.81049254      4.93592791      7.57029049
  H      9.13657378      4.90624099      9.21527653
  H      8.06845042      5.22372053      7.84009106
  N      9.76994848      6.37714297      5.14693550
  C      8.89886452      7.25894808      5.62244631
  N      9.48360896      7.98283604      6.56576694
  C     10.77824527      7.57208625      6.67373089
  C     10.96074124      6.56427497      5.77887435
  C      9.54190334      5.43550444      4.08082727
  C      9.90549575      6.07332749      2.74269821
  C      8.84178185      9.03953779      7.28724640
  H      7.86461164      7.32997099      5.35972320
  H     11.46379324      8.01972909      7.36372919
  H     11.79859843      5.92359629      5.58337335
  H     10.16747960      4.55864369      4.27973814
  H      8.48750670      5.15189211      4.09920931
  H      9.55675380      5.45288555      1.92179402
  H     10.98397228      6.18316776      2.66195655
  H      9.45411524      7.06105001      2.67032545
  H      9.46451286      9.34728258      8.12423361
  H      7.87744038      8.66717520      7.64206420
  H      8.68032351      9.88091099      6.61135132
  N      5.24875101      8.09092288      1.92506436
  C      6.01102625      8.51762542      2.92826353
  N      5.24818160      8.71093418      3.99731947
  C      3.96450949      8.38959466      3.66783840
  C      3.96555952      7.99668906      2.36398932
  C      5.68254554      7.73092427      0.59826326
  C      6.26350932      6.32139594      0.59451093
  C      5.72375874      9.19115870      5.26265106
  H      7.07365509      8.72362843      2.91583491
  H      3.16357180      8.45610022      4.37453030
  H      3.17958263      7.72772157      1.67551332
  H      4.79488764      7.78252008     -0.04799322
  H      6.43459801      8.45161524      0.26977193
  H      6.58593505      6.06358122     -0.41005369
  H      5.50594560      5.60674938      0.90611009
  H      7.11607219      6.25359257      1.26800300
  H      5.75756467      8.38050980      6.00118931
  H      5.06984808      9.97937795      5.63336397
  H      6.73259515      9.57624838      5.11627190
 Cl      2.56750188      7.87261777     -0.52973009
 Cl      8.93484122      9.48391745      3.85192610
 Cl     11.94226176      3.44588284      5.51595477
 Cl      7.70607944     -1.98440340      8.80858747
 Cl      6.40574592      6.76633995      7.49412572

