62
Energy =    -96.25430248 au
  N      4.08443168      7.20368667      4.88202726
  C      4.27781928      8.05241981      5.89153826
  N      5.10240667      7.49384620      6.77308302
  C      5.38419541      6.22523692      6.34433870
  C      4.75326674      6.04402739      5.15882773
  C      3.21126446      7.46265635      3.77028595
  C      3.95448277      8.18510107      2.64984841
  C      5.49595971      8.11087384      8.00365328
  H      3.98568431      9.08088468      5.89915229
  H      5.99792588      5.55590595      6.91128380
  H      4.77085697      5.20941662      4.48510230
  H      2.81655749      6.50722521      3.41724684
  H      2.38659422      8.07077444      4.15225478
  H      3.25217172      8.62327694      1.94516566
  H      4.60338423      7.49029944      2.12346879
  H      4.56934868      8.97669977      3.07181027
  H      6.08173667      9.00740591      7.79050232
  H      6.09083581      7.41337917      8.58994231
  H      4.59577767      8.38914045      8.55611870
  N      7.93664124      8.77238172      2.13883988
  C      8.34925766      8.24957992      3.29863356
  N      7.98996836      6.96823447      3.34514665
  C      7.26942320      6.67791861      2.22313156
  C      7.23298788      7.80387967      1.46978123
  C      8.01593501     10.17109725      1.81009471
  C      9.43100810     10.58292625      1.41880847
  C      8.22347771      6.05712944      4.42789247
  H      8.99749722      8.73479544      3.99669370
  H      6.84134802      5.69731358      2.09471601
  H      6.76790666      7.99622280      0.52532976
  H      7.32280297     10.36587800      0.98935979
  H      7.68274997     10.72138816      2.69710222
  H      9.45209513     11.64318243      1.18270253
  H      9.76588928     10.02389578      0.54715693
  H     10.12151051     10.39862871      2.23752967
  H      9.28174704      5.79630340      4.48906691
  H      7.63254048      5.15785031      4.24433421
  H      7.90758274      6.52107785      5.36113650
  N      1.32741021      4.45826719      0.64125996
  C      1.73337967      3.18053047      0.66631109
  N      3.00675036      3.14668365      1.06561852
  C      3.45738648      4.43239134      1.18729399
  C      2.41215288      5.25075831      0.92265141
  C      0.03955476      4.88842559      0.16782214
  C     -1.04467464      4.67803343      1.22064067
  C      3.83068831      1.97880195      1.18072319
  H      1.08305377      2.33183767      0.63592057
  H      4.46462871      4.62804218      1.50236903
  H      2.34686397      6.31841431      0.90490062
  H      0.11046454      5.94611541     -0.09511556
  H     -0.17543741      4.31014312     -0.73725881
  H     -2.00188573      5.02243930      0.83848907
  H     -0.80969043      5.23413226      2.12592655
  H     -1.13182810      3.62435188      1.47320699
  H      4.73677856      2.25326957      1.72195768
  H      4.08958762      1.61328319      0.18514433
  H      3.29964118      1.19439212      1.71943509
 Cl      1.74935913      2.73450856     -1.75913134
 Cl      6.73737800      9.51050794      4.82343420
 Cl     34.83714587      3.74222357     20.76073549
 Cl      2.08316564      7.86941404      7.12194176
 Cl      6.17973099      3.71797244      2.99507585
