#B3LYP/6-31+G(d) OPT FREQ

62, Energy =    -96.28660356 au

0 1
  N      6.13062915      9.05899914      4.88918320
  C      6.33984764      8.67523537      6.14674066
  N      7.58637895      8.97402770      6.49030843
  C      8.19023001      9.56572437      5.42475042
  C      7.27749720      9.62344502      4.41761704
  C      4.90926374      8.87375075      4.13935196
  C      4.52300689     10.13245364      3.37585755
  C      8.19996412      8.68641799      7.75347895
  H      5.63740739      8.20021875      6.81494144
  H      9.21215974      9.88017451      5.45041285
  H      7.36057683     10.06629204      3.43559470
  H      5.03608083      8.03306650      3.44724629
  H      4.12890653      8.60677237      4.85591720
  H      3.61875122      9.94127305      2.80557628
  H      5.30730924     10.43165405      2.68499876
  H      4.33616646     10.95451459      4.06405829
  H      8.54841195      9.60743294      8.22119747
  H      9.05519327      8.02608869      7.58595107
  H      7.46317234      8.20381869      8.39293998
  N      5.27140670      5.11902900      6.17976686
  C      5.80012071      4.92142895      7.38460094
  N      7.08547982      5.25483976      7.35131124
  C      7.37467081      5.72655653      6.10659017
  C      6.23761482      5.63898655      5.36923055
  C      3.90425838      4.87717298      5.78612821
  C      2.97406761      5.96274737      6.31919633
  C      7.99876011      5.23579549      8.45577227
  H      5.28500746      4.51808484      8.23155313
  H      8.36137994      6.09040818      5.88184194
  H      6.01704154      5.86350290      4.34043286
  H      3.88421141      4.86004485      4.69279424
  H      3.60428689      3.89882846      6.17183134
  H      1.95066478      5.60082804      6.34397377
  H      3.01366970      6.83825979      5.68078274
  H      3.27663662      6.25464557      7.32317053
  H      7.62024559      5.89727007      9.23651565
  H      8.96784693      5.58571728      8.10224056
  H      8.09363696      4.22660430      8.85812640
  N      9.00387842      6.17772164      2.88483579
  C      7.90668863      6.27512671      2.13425119
  N      7.82046392      7.50905565      1.65412768
  C      8.89207783      8.22120472      2.09393257
  C      9.63549089      7.38496823      2.86929397
  C      9.50185522      4.98925085      3.52874799
  C     10.46255063      4.24281439      2.60715936
  C      6.76863575      8.01335674      0.81985011
  H      7.14243349      5.52764036      2.01311617
  H      8.99168801      9.26311533      1.84941985
  H     10.52347630      7.55548599      3.44188204
  H     10.01502003      5.29787080      4.44693393
  H      8.65054529      4.35630377      3.78473274
  H     10.84120933      3.35947582      3.11293646
  H     11.30554899      4.87780243      2.34499327
  H      9.95841523      3.93458278      1.69271917
  H      6.97881807      7.79409805     -0.22772669
  H      6.71619525      9.09747208      0.95047200
  H      5.83394553      7.53129816      1.10330540
 Cl     10.52180114      6.63590640      6.27744370
 Cl      4.82621733      5.69414242      2.44082631
 Cl      7.51276837     11.16029104      1.54217396
 Cl      5.17106442      7.17736197      8.82201601
 Cl    -19.34404866    -15.33660982    -10.93747011

