62
Energy =    -96.27781598 au
  N      8.56764993      2.45243328      5.58460980
  C      8.29089082      3.38704818      6.48749893
  N      7.35491610      2.93815990      7.31110478
  C      6.97689358      1.69838577      6.88771495
  C      7.74416937      1.39019697      5.80657650
  C      9.59656102      2.53985522      4.58173954
  C     10.93257377      2.08149732      5.15385453
  C      6.79802927      3.72477805      8.37047669
  H      8.81926574      4.30800132      6.64307449
  H      6.20693414      1.13452160      7.37376783
  H      7.75659477      0.52741379      5.17182992
  H      9.31442146      1.92518523      3.71987932
  H      9.65284642      3.58279656      4.26440248
  H     11.70721488      2.18619066      4.39774461
  H     10.87303570      1.03621759      5.43899625
  H     11.20257815      2.66741806      6.02649833
  H      7.61374380      4.29045901      8.82861642
  H      6.31832814      3.07924479      9.10227664
  H      6.07130014      4.42333360      7.95364843
  N      6.79056914      3.89168150      1.75181427
  C      8.11702921      3.95280659      1.71079340
  N      8.49517052      5.21798926      1.86415002
  C      7.37965126      5.98751315      2.00575512
  C      6.30854288      5.15061110      1.93886835
  C      6.04583661      2.66005878      1.62932000
  C      4.93936851      2.56536922      2.67112802
  C      9.84194998      5.72077069      1.85579666
  H      8.74138278      3.07120806      1.60957508
  H      7.46034200      7.04243606      2.19163332
  H      5.26560522      5.36344150      2.04119046
  H      5.62582109      2.60366849      0.61702941
  H      6.77410176      1.85020040      1.75009789
  H      4.59447751      1.53677117      2.74628840
  H      4.09153804      3.19784098      2.40732450
  H      5.32093933      2.88873022      3.63866480
  H     10.50724543      5.01036602      2.34515101
  H      9.85102221      6.68815814      2.37167424
  H     10.18185722      5.86743454      0.82722216
  N      9.60777605      6.88217576      6.08874613
  C      8.49062625      6.88808495      5.37153905
  N      7.58999251      7.65655584      5.96960430
  C      8.16020003      8.17954826      7.09163796
  C      9.42689528      7.69301525      7.16577194
  C     10.83173277      6.20254779      5.75598654
  C     11.84148021      7.18455586      5.17342218
  C      6.28928861      7.93071310      5.43563323
  H      8.28428511      6.29870930      4.50306692
  H      7.63100345      8.84017267      7.74836523
  H     10.18350440      7.82433664      7.91048215
  H     11.19962404      5.72526873      6.66877747
  H     10.59522573      5.43535095      5.01634002
  H     12.70994405      6.64886357      4.79945100
  H     12.16810990      7.89618999      5.92877267
  H     11.37754279      7.73391746      4.35607365
  H      6.39723630      8.55250340      4.54427380
  H      5.68298065      8.44207623      6.17993637
  H      5.82722229      6.98192162      5.15342394
 Cl      8.98097428      0.90647327      1.71683364
 Cl    -22.39927323     25.94850741     20.58597437
 Cl      9.06282519      8.62099974      3.29828154
 Cl      9.93218729      4.92295059      8.65082521
 Cl      6.35754465      4.64289411      5.00581200
