#B3LYP/6-31+G(d) OPT FREQ

62, Energy =    -96.25616283 au

0 1
  N      4.18341442      8.09108812      2.88924397
  C      5.08579383      8.14495823      1.90739704
  N      5.27702640      9.42527859      1.56864319
  C      4.39312410     10.18763666      2.28158753
  C      3.72103091      9.35700000      3.11486024
  C      3.73490120      6.90094762      3.56825266
  C      4.63174792      6.57998144      4.75951135
  C      6.04344115      9.84119383      0.43059864
  H      5.69541025      7.31683409      1.60039166
  H      4.32037920     11.24754172      2.14141684
  H      2.95537112      9.57055194      3.83080800
  H      2.70332019      7.07094410      3.89088875
  H      3.75332773      6.08208076      2.84757181
  H      4.26450428      5.69569289      5.27182827
  H      4.64700014      7.40919408      5.46286269
  H      5.64526832      6.38730448      4.41979221
  H      7.10019309      9.62618368      0.58096896
  H      5.90821116     10.90774004      0.26623587
  H      5.67676564      9.28503321     -0.43521190
  N      8.07030602      1.89708147      3.35551014
  C      8.50712740      2.84202094      4.18308755
  N      9.12138607      2.26386043      5.21047390
  C      9.08424493      0.91512304      5.03935125
  C      8.42258061      0.68398165      3.87334479
  C      7.37948556      2.13017271      2.10874273
  C      8.24239239      1.77321275      0.90624106
  C      9.73668910      2.90619862      6.33833872
  H      8.35155788      3.90119294      4.02614487
  H      9.52310949      0.26735371      5.78929380
  H      8.18050458     -0.23522139      3.38026763
  H      6.46273947      1.53623609      2.09310764
  H      7.11816270      3.18631869      2.08043342
  H      7.66323417      1.94013795     -0.00138388
  H      8.54059498      0.72882423      0.93939729
  H      9.13347975      2.39382658      0.87698377
  H     10.58156484      3.51329277      6.01310313
  H     10.08739913      2.11387764      7.01451419
  H      9.01830903      3.54773876      6.84627159
  N      6.12638445      5.00789431     -0.18851510
  C      5.32459334      4.78118009     -1.22298775
  N      4.10303462      4.50707828     -0.77760192
  C      4.14192024      4.50479675      0.58606518
  C      5.40770880      4.81978355      0.95544593
  C      7.54528573      5.24113541     -0.28065061
  C      7.85708891      6.67050006     -0.71512779
  C      2.97073573      4.22157447     -1.60557338
  H      5.58611116      4.90863295     -2.25155528
  H      3.27244129      4.29777405      1.17298472
  H      5.86315552      4.95715232      1.91896287
  H      7.97751302      5.06444230      0.70521845
  H      7.94096900      4.51458932     -0.99524409
  H      8.89877674      6.74452500     -1.01723476
  H      7.69694626      7.34668285      0.11835930
  H      7.22294879      6.97338836     -1.54335664
  H      2.55537214      5.15096233     -2.00148641
  H      2.21018545      3.71074363     -1.01911214
  H      3.28982115      3.57808313     -2.42492100
 Cl      7.62879892      5.85275089      3.18763606
 Cl      3.71230206      7.57337694     -0.14204982
 Cl      6.10960775      2.38762018     -1.81496095
 Cl    -13.32844544     34.57102772     17.43920407
 Cl     10.50945621      0.02885087      7.73095936

