62
Energy =    -96.02110102 au
  N      3.45925736     -1.38217488      3.24719789
  C      2.84060877     -1.75306348      2.11987810
  N      1.71444549     -1.04142647      2.00926925
  C      1.62635297     -0.18202044      3.06896335
  C      2.72969462     -0.39562289      3.85144213
  C      4.75932921     -1.88401913      3.70697162
  C      5.78871105     -0.77120267      3.77011114
  C      0.83136089     -1.03213924      0.84864119
  H      3.21445564     -2.44669844      1.38863230
  H      0.81835942      0.51896340      3.17066562
  H      3.05272357      0.09161906      4.75265875
  H      4.60496043     -2.34599844      4.68167270
  H      5.05638917     -2.65791075      3.00300254
  H      6.73697526     -1.18746884      4.10732872
  H      5.48703631      0.01156410      4.46290377
  H      5.92574772     -0.31955660      2.79255971
  H      1.00226598     -0.11379353      0.29348690
  H     -0.19817458     -1.09487014      1.19046865
  H      1.07760204     -1.87708387      0.21567351
  N     12.87719274      4.99464812      4.44708711
  C     12.12911408      3.97874444      4.00048620
  N     11.58125001      3.36920450      5.05652186
  C     11.96326954      4.02363935      6.19453184
  C     12.78143389      5.05231911      5.81023127
  C     13.60221657      5.95079207      3.60236493
  C     13.07434681      7.36105662      3.78805682
  C     10.57796251      2.31246971      4.99562911
  H     11.93749038      3.73536498      2.97108922
  H     11.61154799      3.73185575      7.16701811
  H     13.26331395      5.81683177      6.39096858
  H     14.65850594      5.87867225      3.85994657
  H     13.47474425      5.61279271      2.57658106
  H     13.63311607      8.03438794      3.13951994
  H     13.18737564      7.69638421      4.81687797
  H     12.02072056      7.41303360      3.53204870
  H      9.60971699      2.74287987      5.23648460
  H     10.84523547      1.53349821      5.70449654
  H     10.54668299      1.91833736      3.98622557
  N      6.29690867      5.65514278      0.69666510
  C      6.71032707      6.56890745      1.58281051
  N      6.23302376      6.22959254      2.78445614
  C      5.52645645      5.06482065      2.66887195
  C      5.56745542      4.70002726      1.34958930
  C      6.65282738      5.63079522     -0.72676577
  C      7.44458586      4.38446744     -1.07570649
  C      6.57942562      6.87668356      4.04471846
  H      7.37212114      7.39248084      1.38439974
  H      5.08061393      4.58017435      3.51794067
  H      5.16659390      3.83780891      0.84975596
  H      5.72590742      5.69201280     -1.29629941
  H      7.23157837      6.53225160     -0.91424647
  H      7.69346835      4.41073380     -2.13569037
  H      6.87319263      3.48054480     -0.87538994
  H      8.36109877      4.33745112     -0.49591033
  H      7.27977181      6.23936374      4.57773098
  H      5.67187984      7.02725907      4.62300224
  H      7.05935464      7.82475925      3.83016115
 Cl      2.56347715      5.07343602      7.09654307
 Cl    -53.39762847     44.47489770     45.88101809
 Cl     10.34692496     -4.77616055      3.94304090
 Cl     11.63058353      9.16265217     -2.74345163
 Cl     21.27852763     18.93925959      8.10404830
