62
Energy =    -96.26095601 au
  N      3.51256377      6.53151084      6.01248338
  C      2.80044485      6.91876637      7.07360025
  N      2.67782645      5.88819247      7.90878530
  C      3.24633079      4.79356598      7.31898184
  C      3.77268495      5.19532034      6.13652127
  C      3.85810584      7.36234746      4.88981238
  C      5.23842658      7.97946298      5.08479948
  C      1.95763840      5.94305555      9.14490261
  H      2.57082178      7.93172471      7.32788447
  H      3.22081967      3.82476717      7.77335591
  H      4.33636272      4.65965386      5.40144034
  H      3.84463083      6.74284505      3.98957355
  H      3.08453675      8.12886720      4.80001127
  H      5.48754581      8.62073381      4.24362757
  H      5.98380380      7.19006426      5.15982621
  H      5.25464348      8.56856494      5.99851675
  H      1.88293241      4.94494795      9.57170234
  H      0.95988440      6.33847825      8.94673194
  H      2.48659252      6.60466633      9.83429194
  N      6.84433745      5.32223615      9.33413834
  C      6.69340245      6.26005570      8.39788627
  N      7.74800679      7.07130750      8.43211664
  C      8.55144379      6.68911035      9.46843194
  C      7.98788293      5.59202803     10.03116167
  C      5.90279089      4.26457618      9.57939130
  C      6.12815232      3.11603026      8.60133853
  C      7.94514325      8.18369539      7.55244701
  H      5.95922249      6.24420800      7.62155975
  H      9.44663395      7.21999934      9.71999820
  H      8.30118479      4.99541679     10.86324799
  H      6.01904556      3.93039790     10.61398363
  H      4.90636436      4.69558373      9.45686510
  H      5.31124897      2.40198213      8.65600246
  H      7.06039577      2.60228345      8.82548312
  H      6.19432090      3.51047380      7.58999645
  H      7.91078038      7.82649218      6.52223977
  H      8.90993717      8.64375166      7.75461726
  H      7.14707364      8.91175502      7.70746145
  N     10.06022036      3.15656315      6.15388947
  C      9.34659107      3.06001967      5.03126264
  N      8.35699234      2.18886505      5.22134615
  C      8.50226431      1.64481915      6.46423040
  C      9.56172543      2.25284354      7.05108179
  C     11.17358848      4.04451032      6.34662310
  C     10.71092645      5.34569978      6.99733595
  C      7.39611463      1.84054361      4.21948035
  H      9.41328453      3.73107437      4.20152501
  H      7.84348419      0.88396156      6.82959550
  H      9.99898505      2.11666976      8.01885227
  H     11.92241323      3.53955070      6.96343248
  H     11.60659748      4.23394214      5.36243644
  H     11.48388874      6.10553802      6.92238595
  H     10.46865629      5.18538374      8.04577955
  H      9.81217698      5.69396273      6.49380580
  H      6.82381950      2.72952357      3.94777771
  H      6.72548030      1.07529917      4.60391655
  H      7.92639310      1.46701783      3.34094906
 Cl      0.49315770      6.95027603      6.13410356
 Cl     10.87113781      1.63114455      3.68888994
 Cl      4.91690558      7.64270234      9.53753320
 Cl     28.06193802     29.87582145    -14.58648805
 Cl      7.35139400      5.10300030      5.81000179
