62
Energy =    -96.27425826 au
  N      7.67330151     -0.21081924      5.81641678
  C      8.19125272      0.73677519      5.04270652
  N      8.21496838      1.88172837      5.71575107
  C      7.67635959      1.66307391      6.94906665
  C      7.33919319      0.34913160      7.01650664
  C      7.39357514     -1.57124163      5.42962019
  C      7.97295821     -2.56324449      6.42793439
  C      8.72233097      3.14834432      5.27231341
  H      8.54629632      0.59738826      4.04204063
  H      7.53193306      2.48640599      7.62285354
  H      6.92255333     -0.24171562      7.81611746
  H      6.30760412     -1.69074169      5.37430455
  H      7.80499151     -1.72338155      4.42844744
  H      7.78911110     -3.57701695      6.08307696
  H      7.49799370     -2.43952760      7.39912673
  H      9.04610192     -2.41860705      6.53713953
  H      9.80734942      3.18660408      5.39344320
  H      8.26428658      3.92282896      5.89383182
  H      8.47132113      3.30245718      4.22479181
  N      4.78989862      1.85269687      9.13669683
  C      4.51633820      0.87438804      8.27750905
  N      3.89039091      1.38345063      7.22606893
  C      3.74742276      2.72195428      7.42015737
  C      4.31445583      3.01895982      8.61977220
  C      5.46299476      1.68527223     10.40166359
  C      6.86371525      2.28953985     10.37743986
  C      3.43845557      0.66884459      6.06790403
  H      4.78998691     -0.15981005      8.44536642
  H      3.19215126      3.33165761      6.73896714
  H      4.43332966      3.96102414      9.11173370
  H      4.85572063      2.16417081     11.17606553
  H      5.52477805      0.61218586     10.59534698
  H      7.22492383      2.42547975     11.39306431
  H      6.85971243      3.25306232      9.87291014
  H      7.54237947      1.62391456      9.85280899
  H      4.15125779      0.79251555      5.24833554
  H      2.46550540      1.07399699      5.77644065
  H      3.34894069     -0.38808619      6.30747733
  N      4.18176284      4.20476136      4.36703565
  C      3.65612478      3.22509234      3.64225384
  N      2.34504811      3.41156468      3.53812874
  C      2.01968275      4.53985292      4.22439143
  C      3.17558268      5.04547619      4.73766162
  C      5.58420494      4.34602775      4.65890546
  C      6.18455910      5.49848766      3.86060417
  C      1.39977559      2.50530005      2.95865646
  H      4.23028667      2.39252183      3.26173360
  H      1.00852435      4.87079140      4.32658393
  H      3.34820227      5.90269481      5.35458731
  H      5.72989678      4.51981158      5.73197950
  H      6.05340555      3.39942235      4.38620478
  H      7.21665369      5.64426933      4.16284907
  H      5.64284988      6.42179592      4.05487889
  H      6.15290655      5.28939688      2.79244040
  H      0.74622875      2.17124268      3.77452561
  H      1.92712857      1.65792562      2.52855067
  H      0.80531696      3.00773610      2.19539495
 Cl     30.33499128     19.26094348    -12.06892594
 Cl      6.08254364     -1.70336001      9.31155556
 Cl      5.96729818      1.03554708      3.42116239
 Cl      6.91742398      4.77819846      7.70201650
 Cl      0.68596666      2.64456725      6.04655345
