62
Energy =    -96.26775136 au
  N      4.91642107      6.38127041      7.06913142
  C      5.70046553      6.84862686      8.03893484
  N      6.57510002      7.69490463      7.51075611
  C      6.34585104      7.77784877      6.17320189
  C      5.29865970      6.95696248      5.89227808
  C      3.83872782      5.43661218      7.22131472
  C      2.53619302      5.99800859      6.66419152
  C      7.63491006      8.36248546      8.20580248
  H      5.70228210      6.52657498      9.06183066
  H      6.93647147      8.44137838      5.56449496
  H      4.82020840      6.70194473      4.96413745
  H      4.09365045      4.52699947      6.67086796
  H      3.75549916      5.19744167      8.28404723
  H      1.71159329      5.34086730      6.92655519
  H      2.59820597      6.04856335      5.57958981
  H      2.33533551      6.99132533      7.05964558
  H      8.19753703      8.95455480      7.48505422
  H      8.26973141      7.60750493      8.67683767
  H      7.23021092      9.01602865      8.98035008
  N      4.50531346     10.15107474      4.01722869
  C      3.26560585      9.82770628      3.65294584
  N      3.32039955      8.76809873      2.85804985
  C      4.62456773      8.40035811      2.70689706
  C      5.37079496      9.27379438      3.43528565
  C      4.88459202     11.19545927      4.93583666
  C      4.19273730     11.00372889      6.27872272
  C      2.18165835      8.10145315      2.29819029
  H      2.33155042     10.34729539      3.87703378
  H      4.90625481      7.53059776      2.15017591
  H      6.42974385      9.35797179      3.59363358
  H      5.97225093     11.13794458      5.05519630
  H      4.60985489     12.16498990      4.51154140
  H      4.51162433     11.78202020      6.96595250
  H      4.46084379     10.03776708      6.70029659
  H      3.11280896     11.05434459      6.16611070
  H      1.28575529      8.66590123      2.56158407
  H      2.13192770      7.08504424      2.69946747
  H      2.28343018      8.04078963      1.21223604
  N      6.92858517      2.47840997      6.94277666
  C      6.36940146      1.78044799      5.95782538
  N      6.05516986      2.61703461      4.97480995
  C      6.42279357      3.87832375      5.33946259
  C      6.97264083      3.78982874      6.58107329
  C      7.40190287      1.93550680      8.19295848
  C      8.51379120      0.92200941      7.95330106
  C      5.41143020      2.27482579      3.73969351
  H      6.25828788      0.69217746      5.94385708
  H      6.23152564      4.72074231      4.70631815
  H      7.36370507      4.53390799      7.25130885
  H      7.73817464      2.77827449      8.80251528
  H      6.56574022      1.44133418      8.69392058
  H      8.87146766      0.54152836      8.90582210
  H      9.34515442      1.38665744      7.42823998
  H      8.13657630      0.08932818      7.36218275
  H      6.14473362      2.22960887      2.93261729
  H      4.67828982      3.04814054      3.49775259
  H      4.93082021      1.30521298      3.84119344
 Cl      3.80300325      5.27550648      3.43869885
 Cl      6.49983376     -1.35882325      5.95837467
 Cl      0.34772753     10.96045059      3.62968211
 Cl      7.70789971      5.20824074      9.50235491
 Cl      8.14326313     10.31747857      5.11805180
