#B3LYP/6-31+G(d) OPT FREQ

62, Energy =    -96.27015832 au

0 1
  N      8.94791555      3.60219883      7.69958536
  C      7.80111649      2.96036831      7.88604681
  N      6.87550504      3.47142664      7.08555385
  C      7.45081462      4.46198926      6.35361584
  C      8.75671686      4.53698512      6.73259825
  C     10.21309868      3.34115743      8.33685572
  C     11.09983175      2.50347512      7.41903024
  C      5.51078583      3.04263785      7.01042095
  H      7.63728766      2.15563755      8.57379152
  H      6.90093289      5.04326134      5.63701629
  H      9.54275986      5.21111127      6.45749081
  H     10.67496862      4.31410854      8.54258162
  H     10.02325447      2.81304782      9.27319025
  H     11.97002655      2.14310243      7.96190246
  H     11.43782616      3.10276796      6.57724443
  H     10.54023779      1.65172145      7.03617263
  H      5.47941837      1.95781639      6.89368127
  H      5.04400426      3.51858848      6.14958754
  H      4.97736965      3.32986627      7.93195481
  N      5.30986794      6.89316181      7.67625901
  C      6.01721152      7.60999036      6.80719110
  N      7.30065289      7.55522098      7.14241703
  C      7.41890857      6.79611075      8.26623006
  C      6.16719147      6.37709568      8.60117374
  C      3.87489028      6.71790257      7.67290377
  C      3.37361202      6.07912379      6.37721146
  C      8.39008794      8.12509022      6.40246001
  H      5.62992891      8.11492113      5.94563051
  H      8.38647288      6.61523290      8.69932514
  H      5.80075115      5.72218887      9.37235663
  H      3.63764024      6.06595605      8.52030155
  H      3.41009847      7.69927958      7.81872605
  H      2.34470701      6.37882392      6.18843662
  H      3.40217099      4.99655676      6.46375860
  H      3.98732897      6.37568599      5.52980343
  H      8.31748962      7.80005277      5.36398650
  H      9.32565972      7.77364884      6.84560732
  H      8.35177461      9.21439594      6.44024489
  N      7.43563848      3.04958022      3.38549518
  C      7.58448951      1.72592284      3.41154099
  N      6.37988166      1.15341289      3.46627887
  C      5.44344169      2.14920651      3.52204432
  C      6.10328901      3.33364731      3.46312320
  C      8.48787378      4.03477148      3.31904856
  C      9.10631754      4.09926591      1.92653305
  C      6.16190374     -0.24831014      3.67298691
  H      8.51367559      1.19870520      3.33993154
  H      4.39696057      1.94058812      3.60657540
  H      5.75649730      4.35287543      3.49188373
  H      8.04088832      5.00023520      3.57158197
  H      9.24393133      3.77955593      4.06437146
  H      9.86992161      4.87306456      1.91696159
  H      8.34882621      4.35575963      1.18947404
  H      9.56538991      3.15097262      1.64938329
  H      6.50374389     -0.82578022      2.81280757
  H      5.10424550     -0.43391729      3.84316466
  H      6.73961546     -0.54037924      4.55660959
 Cl      8.26130903      0.88839004      5.85210699
 Cl     10.77411213      6.64934128      8.23125595
 Cl     -4.92509115     -5.84123695    -22.98953516
 Cl      6.17436556      6.55880349      3.96567073
 Cl      4.11216677      4.15458821      9.81833674

