#B3LYP/6-31+G(d) OPT FREQ

62, Energy =    -96.26687348 au

0 1
  N      8.55288822      8.72568735      2.80478192
  C      7.73597300      9.06199246      1.81258864
  N      7.74231585      8.09988456      0.90311923
  C      8.56248081      7.10442373      1.34031760
  C      9.07583090      7.49925909      2.53575540
  C      8.84403417      9.48700982      3.99503514
  C      7.57138402     10.08306788      4.58016722
  C      6.91594788      8.09262525     -0.26654440
  H      7.19538893      9.98222961      1.69018325
  H      8.70896254      6.20177472      0.78336763
  H      9.76251307      7.03501643      3.22251785
  H      9.33553835      8.80202245      4.69365146
  H      9.55598851     10.28020795      3.74090729
  H      7.73825283     10.37957040      5.61207654
  H      6.77612608      9.34380839      4.54405089
  H      7.25512014     10.95235364      4.00884367
  H      5.93127276      7.70718745      0.00423920
  H      7.36176846      7.46414578     -1.03540418
  H      6.81745154      9.12340461     -0.61704082
  N      7.78646336      5.49625187      5.04452521
  C      8.73536282      5.22043937      5.93187074
  N      8.65233975      6.07820601      6.93549309
  C      7.62114048      6.93035726      6.68301194
  C      7.06931074      6.56124767      5.49759767
  C      7.46499048      4.72176293      3.87470477
  C      6.63599337      3.50462222      4.27915685
  C      9.52422956      6.06192456      8.06904776
  H      9.46921448      4.44695632      5.84857686
  H      7.36191019      7.72261333      7.35511205
  H      6.26510520      6.97038370      4.91556836
  H      6.90554749      5.36844118      3.19376393
  H      8.40009810      4.41064819      3.40224619
  H      6.56449250      2.80174744      3.45319318
  H      5.63419881      3.81566271      4.56399921
  H      7.09691834      3.01324696      5.13462066
  H      9.52019056      5.04879673      8.47754024
  H      9.17532291      6.77352932      8.81458448
  H     10.53046148      6.32785178      7.73921343
  N      3.48039464     10.28499083      3.67918678
  C      3.19295904      9.79076360      2.48042108
  N      3.95175642     10.38508690      1.57100709
  C      4.73318709     11.30757498      2.19832928
  C      4.43839660     11.24394976      3.52144610
  C      2.83872143      9.89754648      4.90603416
  C      3.60943541      8.77504802      5.59386977
  C      3.90730435     10.18349999      0.15325665
  H      2.50842887      8.99107990      2.29255684
  H      5.44308701     11.89171658      1.64502839
  H      4.82178412     11.79871492      4.35303604
  H      2.77036282     10.77923849      5.54982408
  H      1.82545723      9.58274360      4.64596577
  H      3.01499113      8.33529743      6.39004439
  H      4.54100681      9.14911142      6.01351753
  H      3.85514879      8.00660522      4.86519316
  H      3.83728314      9.11919938     -0.06426748
  H      4.82038878     10.59702764     -0.27914013
  H      3.03234382     10.69066648     -0.25795131
 Cl      5.33861474      7.58993214      2.77778943
 Cl     10.99207438      7.08204895      5.18415957
 Cl      8.07623271      3.02889859      7.59693615
 Cl      0.81653097     11.03772019      2.35147399
 Cl      7.08724891     11.45301960     -0.30753039

