#B3LYP/6-31+G(d) OPT FREQ

62, Energy =    -96.29444683 au

0 1
  N      3.90482986      4.08975632      4.19653116
  C      4.18124394      3.88398445      2.91256806
  N      5.06675059      2.90042019      2.81773209
  C      5.35735257      2.45444405      4.07001635
  C      4.62354889      3.20184290      4.93861486
  C      3.01647953      5.09321301      4.72396231
  C      1.65377484      4.49657171      5.05895938
  C      5.66842037      2.44497090      1.59848163
  H      3.88574390      4.50482150      2.07367564
  H      6.09858863      1.69852178      4.23387979
  H      4.59527988      3.21752509      6.00829117
  H      3.48666164      5.50248562      5.62503907
  H      2.91543437      5.87885331      3.97355847
  H      1.00612425      5.26937824      5.46264557
  H      1.75711646      3.71016677      5.80298431
  H      1.18800009      4.07952700      4.16775666
  H      5.13181665      1.58055980      1.20370583
  H      6.70017849      2.15783485      1.81190963
  H      5.63037278      3.25746041      0.87334399
  N      8.78141861      4.54872813      5.88153549
  C      8.29852704      5.70138636      6.33262917
  N      8.89298530      6.70133265      5.69119160
  C      9.79066722      6.17594848      4.81383193
  C      9.72077900      4.82107868      4.93543001
  C      8.35739342      3.24038119      6.30857532
  C      9.27173301      2.70153802      7.40370979
  C      8.60176838      8.09606960      5.84711598
  H      7.45965152      5.79278159      7.00653155
  H     10.33879449      6.80470836      4.14158452
  H     10.21991368      4.03632266      4.40491792
  H      7.33310376      3.33073020      6.67298130
  H      8.37869865      2.58238418      5.43161727
  H      8.93723832      1.71188739      7.70018826
  H      9.25427575      3.35262825      8.27623756
  H     10.29446664      2.62480547      7.04129533
  H      8.63490711      8.55762696      4.85146028
  H      9.34621944      8.57540160      6.48482976
  H      7.61515657      8.20906600      6.28954801
  N      7.55009537      5.59395496      1.89239122
  C      6.94255126      6.77165056      1.91117838
  N      6.31458766      6.91717595      3.06853236
  C      6.52440133      5.79601351      3.81518071
  C      7.30548505      4.96509729      3.07584133
  C      8.37696897      5.08528085      0.82999082
  C      9.80634514      5.59899916      0.97753629
  C      5.57128503      8.07364267      3.47019727
  H      6.94848279      7.48949019      1.11784192
  H      6.10938681      5.68785682      4.79971978
  H      7.69174611      3.98138122      3.27342533
  H      8.35772798      3.99500996      0.88337124
  H      7.94182791      5.40863924     -0.11829905
  H     10.36997952      5.41505461      0.06707303
  H     10.29801569      5.09527433      1.80570592
  H      9.79566375      6.66666315      1.18348742
  H      6.22408355      8.94688623      3.41792713
  H      5.21913952      7.93094908      4.48970667
  H      4.72274833      8.21650470      2.79938499
 Cl      5.26367745      5.63656983      7.12728996
 Cl    -34.40167522     30.55994475     31.59175018
 Cl      8.55612239      1.82149839      3.29277001
 Cl      9.00233569      8.63177255      2.68119024
 Cl      4.64383498      5.74893026      0.51294484

