62
Energy =    -96.27052953 au
  N      0.26672711      6.51305057      6.19205733
  C      0.13311163      5.55405335      7.10894570
  N     -0.05530847      4.38922855      6.49616650
  C     -0.08709125      4.62399228      5.14799974
  C      0.11547328      5.95084559      4.95719550
  C      0.42777631      7.91853910      6.45729827
  C      1.84245688      8.38066765      6.13219350
  C     -0.23881631      3.11344990      7.12542410
  H      0.26628013      5.68230565      8.16150649
  H     -0.24026185      3.83353547      4.44396630
  H      0.23441645      6.52604078      4.05855274
  H     -0.28706217      8.46304366      5.83584796
  H      0.16981182      8.08410537      7.50565926
  H      1.93420714      9.44654276      6.32243504
  H      2.05174972      8.19520748      5.07884406
  H      2.57135184      7.85190868      6.74357487
  H      0.60068113      2.44723150      6.89280718
  H     -1.16241797      2.65787170      6.76915063
  H     -0.31129838      3.25475629      8.20064083
  N      7.72860131      2.59122385      5.24211791
  C      7.61720595      1.42035463      4.62182722
  N      6.36655568      0.99505336      4.74341295
  C      5.65370081      1.91200173      5.45871070
  C      6.51541483      2.91832901      5.77041912
  C      8.91529456      3.40610500      5.33343577
  C      9.36559643      3.86317385      3.95116585
  C      5.87553413     -0.23650031      4.19487018
  H      8.38444813      0.84729716      4.10310660
  H      4.61339058      1.76409981      5.69298613
  H      6.40564205      3.82934922      6.32897091
  H      8.66813935      4.26349016      5.96761905
  H      9.70851965      2.82123718      5.80764513
  H     10.25780531      4.47649985      4.04196942
  H      8.58616418      4.45551713      3.47814664
  H      9.58999491      3.00468759      3.32213011
  H      5.11579253     -0.03163305      3.44016259
  H      5.42424375     -0.84008478      4.98174883
  H      6.71789472     -0.76437692      3.74310863
  N      4.21629062      6.11110347      5.06295829
  C      4.42733401      5.72200415      6.31517497
  N      3.73189605      4.61174196      6.54233920
  C      3.05266981      4.29022656      5.40732115
  C      3.36065682      5.23339407      4.47558051
  C      4.86531848      7.21402407      4.40229388
  C      6.26246691      6.79287069      3.95926838
  C      3.68370001      3.87835395      7.77482368
  H      5.15551895      6.15060625      6.98417077
  H      2.47286977      3.38897147      5.35348032
  H      2.99171980      5.40185904      3.48385432
  H      4.22812246      7.50625159      3.56141515
  H      4.93683196      8.04632658      5.10533232
  H      6.76239152      7.62335216      3.46888009
  H      6.20356066      5.95918611      3.26264547
  H      6.84527690      6.49107082      4.82853941
  H      3.34645283      2.86173341      7.55557478
  H      2.98080345      4.34590487      8.46687516
  H      4.67253144      3.86167484      8.22891634
 Cl      2.00926135      7.62420807      2.70397237
 Cl      7.37010478      5.75522805      7.35839830
 Cl      9.14628822     -0.81324678      3.04889924
 Cl      2.42532514      1.15746962      6.28229203
 Cl     -2.18917109      6.18381521      8.09175694
