62
Energy =    -96.25094216 au
  N      1.21209358      1.81913726      5.32735523
  C      1.86566076      2.95395118      5.08381417
  N      1.06606994      3.98030480      5.37517513
  C     -0.12512697      3.47684234      5.82260115
  C     -0.02956832      2.12080049      5.79405156
  C      1.71875077      0.47883999      5.16266183
  C      2.83907233      0.19992600      6.15638618
  C      1.42501263      5.36211120      5.22682881
  H      2.86346348      3.08097085      4.69344209
  H     -0.93444608      4.11026637      6.12097659
  H     -0.71847967      1.31754001      6.02772108
  H      0.86786514     -0.19789596      5.33610915
  H      2.08484401      0.36645377      4.13985386
  H      3.22030912     -0.80384005      5.99799082
  H      2.45797523      0.26431714      7.17192069
  H      3.65302154      0.91167536      6.03326274
  H      2.41801023      5.40348794      4.77220795
  H      1.44785141      5.85696441      6.19868000
  H      0.70647459      5.87289175      4.58537258
  N      3.63227690      0.86959764      1.84079116
  C      3.58608554     -0.47135341      1.84017651
  N      4.31695217     -0.92052552      2.87523752
  C      4.97528450      0.15644833      3.42268988
  C      4.54828677      1.26896231      2.78621788
  C      3.00715682      1.73179685      0.87120134
  C      2.14796592      2.79308114      1.54840169
  C      4.59811131     -2.30632468      3.10549740
  H      2.81892693     -1.04519571      1.36011546
  H      5.68111080      0.04069067      4.21812730
  H      4.78248144      2.30327335      2.95064522
  H      3.79153600      2.20153370      0.26861985
  H      2.40831207      1.10231975      0.20946886
  H      1.70711079      3.44202183      0.79595254
  H      2.75344404      3.39415969      2.22427418
  H      1.34471434      2.32737090      2.11610039
  H      3.67884745     -2.84620210      3.33706417
  H      5.29622553     -2.40363039      3.93361580
  H      5.03859509     -2.72454675      2.19628340
  N      4.79690739      6.29388578      1.39335544
  C      5.75600015      7.10520776      1.83630945
  N      6.93070830      6.47271102      1.75350492
  C      6.71929341      5.27084748      1.13385768
  C      5.38827602      5.15859454      0.91578425
  C      3.39620194      6.60599926      1.31255966
  C      2.99936465      6.91270526     -0.12818693
  C      8.19304240      7.10827937      1.99605333
  H      5.58482346      8.00630485      2.38576606
  H      7.51879640      4.59232906      0.91878042
  H      4.81860332      4.35867717      0.49276708
  H      2.83671104      5.75732888      1.71637508
  H      3.21738859      7.47928634      1.94249819
  H      1.97439421      7.27049589     -0.16788282
  H      3.08912127      6.02735784     -0.75261762
  H      3.66178874      7.68278493     -0.51899205
  H      8.27167747      7.41784535      3.03980111
  H      8.24967664      7.99302341      1.35327956
  H      9.00183794      6.42160171      1.75673638
 Cl      4.36286284      4.51683367      3.81815050
 Cl     -1.18470778     -0.82009009      5.93050075
 Cl      4.94647726     -1.11827406     -0.00433763
 Cl      6.10999879      8.74662662     -0.02701556
 Cl     10.68736773     27.90502970     30.95448862
