62
Energy =    -96.25135443 au
  N      5.04988454      9.42396019      8.32384225
  C      5.56063419      9.42801838      9.55360857
  N      5.56459697      8.18376483     10.02331913
  C      4.98081993      7.37179303      9.09395321
  C      4.66158743      8.14616285      8.02887450
  C      4.96679681     10.56676644      7.45734658
  C      6.20620647     10.63770262      6.56826325
  C      6.04173693      7.82292503     11.32366316
  H      6.04424284     10.25987590     10.01905541
  H      4.84220655      6.32174479      9.25083251
  H      4.18188414      7.89606554      7.10541644
  H      4.05392811     10.48863581      6.85992132
  H      4.89443015     11.45137009      8.09323058
  H      6.25188924     11.59350288      6.05316977
  H      6.19064834      9.83814259      5.82951715
  H      7.09189425     10.51638721      7.18916182
  H      7.10296464      8.06932467     11.39494063
  H      5.89891091      6.75660263     11.48391687
  H      5.48578738      8.39375939     12.07037163
  N      7.35576455      3.94444566      1.46937268
  C      7.76426226      3.54263086      2.67310046
  N      6.97533199      2.55938750      3.08897800
  C      6.03635609      2.33137665      2.12818481
  C      6.27689287      3.20093905      1.10836393
  C      7.93458486      4.99005469      0.65751139
  C      9.45508270      4.93629197      0.67641954
  C      7.09534026      1.85352398      4.32969439
  H      8.60827488      3.94313674      3.22668041
  H      5.27220514      1.59454731      2.25477995
  H      5.82075239      3.34388612      0.14259204
  H      7.53600738      4.85320245     -0.35738565
  H      7.59152936      5.96071013      1.03296664
  H      9.84921294      5.72071148      0.03628902
  H      9.79868669      3.97753243      0.29622941
  H      9.84612984      5.07634195      1.68229995
  H      6.19803627      2.01231679      4.95612287
  H      7.97484845      2.20972385      4.85804276
  H      7.19061969      0.78364486      4.14064372
  N      7.86506031      6.57421775      5.56723852
  C      8.44894237      7.48641031      6.33258394
  N      9.03895083      8.39328708      5.56101369
  C      8.82863805      8.04542889      4.26046873
  C      8.10198360      6.89608028      4.26809812
  C      7.19672220      5.36917330      6.00311822
  C      5.78009495      5.27989849      5.46316275
  C      9.80332320      9.51078530      6.03531746
  H      8.42535437      7.55732628      7.40806653
  H      9.22977481      8.60520797      3.44154046
  H      7.76364686      6.28902886      3.45742511
  H      7.79899191      4.52968150      5.64614607
  H      7.19183963      5.36400988      7.09338973
  H      5.32891529      4.33596731      5.77513008
  H      5.76831503      5.31217527      4.37661854
  H      5.17386786      6.09681066      5.84708841
  H      9.54862131     10.40493360      5.46776792
  H     10.86971611      9.30791532      5.92849456
  H      9.56563565      9.65770888      7.09353874
 Cl      6.11606659      4.16230714     -2.01661106
 Cl     10.18623931      4.89993628      4.30775495
 Cl      4.43730790      2.23341672      6.15226033
 Cl      3.60033103     10.37592034     10.87183863
 Cl      8.42325120      9.25314826      9.01537952
