#B3LYP/6-31+G(d) OPT FREQ

62, Energy =    -96.26783800 au

0 1
  N      7.01436594      3.20943304      3.31426470
  C      5.93396728      3.98600117      3.28771155
  N      4.89980402      3.30998134      3.76970591
  C      5.33184809      2.07158699      4.13484354
  C      6.66062573      2.00447063      3.85227837
  C      8.32449626      3.55462028      2.81682003
  C      9.33350097      3.70324132      3.94651878
  C      3.57022411      3.81167046      3.96339497
  H      5.90236087      4.99662616      2.93594340
  H      4.63873376      1.34795085      4.52574980
  H      7.39025015      1.24354140      4.06911382
  H      8.64798489      2.76096447      2.13657374
  H      8.22957202      4.48906503      2.25579767
  H     10.30199183      3.98266229      3.54060731
  H      9.43368436      2.75735662      4.47672147
  H      9.00261906      4.47197241      4.63836599
  H      3.60183944      4.60990475      4.70640516
  H      2.94220958      2.98576665      4.30880103
  H      3.17529562      4.21261702      3.02999623
  N      8.43760784      7.50980463      6.87925875
  C      7.67537806      8.31577566      6.13783918
  N      7.99228348      8.14741956      4.85288532
  C      9.05312578      7.29028551      4.78483226
  C      9.33240313      6.89241515      6.04925234
  C      8.41925669      7.44951220      8.31734912
  C      7.00712758      7.19425999      8.83510875
  C      7.38335838      8.86977010      3.77711502
  H      6.79424180      8.81451817      6.48007937
  H      9.51359825      7.02662212      3.85499211
  H     10.07581227      6.21525574      6.41648908
  H      9.09155431      6.64422046      8.62143802
  H      8.80184721      8.40272764      8.69982152
  H      7.03877271      6.84635597      9.86482223
  H      6.52419535      6.44414873      8.21349541
  H      6.41452883      8.10374608      8.79535116
  H      7.91874656      8.66809571      2.85147901
  H      7.43065839      9.93668386      4.00616972
  H      6.33942406      8.56635940      3.67236669
  N      6.50304566      2.62405913      7.18922638
  C      5.34645141      3.26597817      7.31978465
  N      4.35968450      2.37738191      7.37585265
  C      4.90524957      1.13273634      7.27996254
  C      6.25370349      1.28902347      7.16427400
  C      7.80230390      3.23799931      7.11638498
  C      8.37935544      3.45067035      8.51172233
  C      2.95772546      2.65857763      7.47132998
  H      5.23864943      4.33323623      7.26938789
  H      4.29210221      0.25595295      7.25520564
  H      7.04766071      0.58587522      7.00033445
  H      8.44429876      2.55845707      6.54483949
  H      7.68433913      4.19135589      6.59754525
  H      9.36257297      3.90414597      8.42916963
  H      8.48761858      2.49653427      9.02236226
  H      7.73929959      4.10087156      9.10614784
  H      2.79214963      3.72690277      7.36170433
  H      2.56585917      2.32015497      8.43104995
  H      2.45016315      2.11063692      6.66159525
 Cl      9.12122515      0.61750048      5.51434377
 Cl      8.74629045     10.50619874      6.55121391
 Cl      5.82260518      7.36693397     43.47431978
 Cl      2.33102899      0.83172540      4.91949803
 Cl      5.98754203      5.80552555      5.53697740

