#B3LYP/6-31+G(d) OPT FREQ

62, Energy =    -96.25051159 au

0 1
  N      5.42547659      5.69870830      9.70933314
  C      5.13521178      6.54785250      8.73395454
  N      4.77175289      5.87247327      7.65081188
  C      4.80692634      4.54560710      7.95772535
  C      5.22371265      4.43371739      9.24467431
  C      6.00297438      6.06933698     10.97641133
  C      5.41706830      5.28429538     12.13953921
  C      4.24762999      6.46207821      6.45442417
  H      5.23837752      7.61133332      8.78864419
  H      4.55930041      3.79585289      7.23629719
  H      5.36223240      3.55668110      9.84697115
  H      7.08467713      5.91408076     10.89535994
  H      5.81784114      7.13718117     11.11482704
  H      5.92471848      5.56751957     13.05856865
  H      5.53741446      4.21402481     11.99819168
  H      4.35985345      5.51385553     12.24004700
  H      3.37189092      7.05667272      6.72815520
  H      3.95200801      5.67869300      5.76033980
  H      4.99429088      7.10626817      5.98857856
  N      8.82551648      2.80878807      7.00666068
  C      9.13754334      3.16329500      8.24871804
  N      8.24030148      2.65555141      9.09036340
  C      7.29101276      2.00677695      8.36109927
  C      7.66131270      2.09448118      7.05676660
  C      9.65544842      3.01380333      5.83819847
  C     10.65172232      1.87257110      5.69879393
  C      8.21109324      2.88539936     10.50422743
  H     10.01527575      3.70646695      8.53028115
  H      6.44387678      1.55314106      8.83750168
  H      7.19717087      1.71278773      6.17102468
  H      9.01122302      3.06656084      4.95946907
  H     10.17415088      3.96661369      5.95055837
  H     11.29423670      2.02540020      4.82491908
  H     10.13144585      0.92445923      5.57844698
  H     11.28805349      1.81322955      6.57932140
  H      9.08465727      2.43916794     10.98177697
  H      7.30135230      2.44615210     10.91381963
  H      8.21893654      3.96289296     10.67106136
  N      2.15086970      3.28887737      9.66309263
  C      2.65947635      2.20018885      9.09073336
  N      2.38090942      2.22056308      7.79318691
  C      1.67984992      3.35441720      7.52325320
  C      1.53615073      4.02850123      8.69910353
  C      2.23516618      3.53962943     11.08545341
  C      1.64563443      4.87903985     11.48308171
  C      2.74392088      1.23851142      6.81295807
  H      3.26448912      1.47821536      9.61012049
  H      1.28366920      3.52302916      6.53692777
  H      1.10173178      4.98728765      8.89067952
  H      1.70709472      2.72625657     11.59820305
  H      3.28892165      3.46658138     11.36693821
  H      1.83162906      5.05507154     12.53975043
  H      0.56968747      4.89234878     11.31979511
  H      2.09161308      5.68938374     10.90731443
  H      3.73321002      1.45384516      6.40536782
  H      2.00094644      1.29407258      6.00103798
  H      2.75508526      0.24768294      7.26208624
 Cl     12.78554622      2.09177070      3.14197766
 Cl      5.11116122      1.55971642     11.08935778
 Cl      2.60158337      7.32078597      9.29569618
 Cl      8.25980319      5.65771180      8.52169709
 Cl      0.39168995      2.13593793      4.80150491

