#B3LYP/6-31+G(d) OPT FREQ

62, Energy =    -96.26582878 au

0 1
  N      7.18025935      5.69423402      2.22811064
  C      7.41718489      5.47489953      0.93940487
  N      6.25819322      5.26461166      0.32390344
  C      5.25756310      5.34568433      1.24642177
  C      5.83527070      5.61752129      2.44648554
  C      8.19923698      5.99437713      3.20573207
  C      7.89643391      7.30377275      3.92375087
  C      6.04972337      4.99654901     -1.07043666
  H      8.42080521      5.51399677      0.51401182
  H      4.23196518      5.26302657      0.94511471
  H      5.38542494      5.79980558      3.40642755
  H      8.24138990      5.17612235      3.93054290
  H      9.14906010      6.04821270      2.66232819
  H      8.67425898      7.50260386      4.65540235
  H      6.93922988      7.25099195      4.43796096
  H      7.87681877      8.12739277      3.21312660
  H      5.01585226      5.25387616     -1.31294454
  H      6.21317999      3.93883265     -1.28394221
  H      6.73954854      5.58775374     -1.66928024
  N      5.05738859      9.95309036      2.57274978
  C      4.97970402      9.70807753      3.87987303
  N      5.11664037     10.85362390      4.53677188
  C      5.28752252     11.86058729      3.64009681
  C      5.24622362     11.29460280      2.40344376
  C      4.89422583      8.96638172      1.52869004
  C      3.47963153      8.40593976      1.54174667
  C      5.10159462     11.04051734      5.96016849
  H      4.80033251      8.72962010      4.31988595
  H      5.38310309     12.88117193      3.98840690
  H      5.33828811     11.73772526      1.43361552
  H      5.11976188      9.44470874      0.57355431
  H      5.60650301      8.15621853      1.69853865
  H      3.35815898      7.67465812      0.74663453
  H      2.75142511      9.20138862      1.39877217
  H      3.29509693      7.92068944      2.49524341
  H      5.04625787     12.11866382      6.15223999
  H      6.01449509     10.63913088      6.40089299
  H      4.24682299     10.52526926      6.39476650
  N      2.34475248      2.24143891      1.54926891
  C      2.18066385      3.56006990      1.50942278
  N      2.10786237      4.02270445      2.75238672
  C      2.22264627      2.96513871      3.60659542
  C      2.37469662      1.84427014      2.84830525
  C      2.51548313      1.37078695      0.41147235
  C      3.80727883      1.71135851     -0.32266571
  C      1.91962252      5.39808054      3.11349284
  H      2.15614049      4.17954103      0.61970539
  H      2.20068588      3.09295583      4.66857157
  H      2.45679702      0.79393910      3.08813035
  H      2.52364308      0.34314521      0.79903729
  H      1.66199974      1.49905461     -0.26029506
  H      3.93732684      1.03522063     -1.16269036
  H      4.65948901      1.60181341      0.34621983
  H      3.77455022      2.73414787     -0.69443778
  H      1.88356625      5.99306760      2.20429631
  H      2.74219440      5.75182395      3.74465061
  H      0.98632040      5.51770504      3.66536382
 Cl      2.68592511      5.71907957     -0.81588512
 Cl      5.16510171     14.35045223      5.63177948
 Cl      4.27923297      6.82375946      5.11649788
 Cl     10.46833396      5.92906420      0.58364323
 Cl      2.22000092     -1.32406909      2.34115573

