#B3LYP/6-31+G(d) OPT FREQ

62, Energy =    -96.25352199 au

0 1
  N      0.93412896      4.44268480      3.54337986
  C      0.25375728      3.30288801      3.57488064
  N      0.89526396      2.42827838      4.34036105
  C      2.03670039      3.01732266      4.79179779
  C      2.06528329      4.27639508      4.28745611
  C      0.58534770      5.60510098      2.76734897
  C     -0.88847578      5.95772577      2.93599723
  C      0.38398477      1.13303526      4.66855658
  H     -0.69052697      3.12688306      3.10700099
  H      2.72536131      2.51057822      5.43391256
  H      2.79262778      5.05442383      4.39648191
  H      1.22019040      6.42764282      3.10648228
  H      0.81258982      5.38897769      1.71688268
  H     -1.06418052      6.99082543      2.64825540
  H     -1.18401723      5.81800058      3.97329008
  H     -1.50957855      5.31527084      2.31880934
  H      1.08466750      0.61232132      5.31592949
  H      0.22474684      0.56609461      3.75064162
  H     -0.56853012      1.26680433      5.18722437
  N      3.02532037      2.39852788      8.42538768
  C      2.86482620      3.72551386      8.26685465
  N      1.61988683      3.94827064      7.82616488
  C      0.92838941      2.76901070      7.85765258
  C      1.79651548      1.80153766      8.23021267
  C      4.19353774      1.74485745      8.95907839
  C      4.05043503      1.49386369     10.45680072
  C      1.03133079      5.22794485      7.56505427
  H      3.67774296      4.41365228      8.15759749
  H     -0.09983991      2.73713669      7.55292829
  H      1.65516805      0.75068104      8.37538794
  H      4.34134117      0.80251126      8.41955915
  H      5.05086477      2.39628262      8.77701790
  H      4.98192622      1.11168885     10.86459932
  H      3.25577575      0.77830354     10.65197198
  H      3.79956692      2.43420739     10.94250164
  H      1.72364212      5.84682544      6.99563088
  H      0.80818374      5.72620861      8.51057530
  H      0.11289362      5.06656153      6.99715133
  N      3.05346511     -0.35716395      2.00901221
  C      3.16537391     -0.70900090      3.29130456
  N      3.80306146      0.26651100      3.95299962
  C      4.20394459      1.20346482      3.03099834
  C      3.72429334      0.81850774      1.82610140
  C      2.40710537     -1.14468871      0.99185265
  C      0.89176685     -0.99244735      1.06465162
  C      4.29266889      0.11671676      5.29233648
  H      2.62335280     -1.50530483      3.75626585
  H      4.77494867      2.06403771      3.30895673
  H      3.77545180      1.29868208      0.87259542
  H      2.76559823     -0.79341889      0.02290486
  H      2.71351336     -2.18575440      1.13279656
  H      0.42518784     -1.50114469      0.22583753
  H      0.64183023      0.06659121      1.02170543
  H      0.50404528     -1.41490994      1.98907372
  H      3.46475996      0.01225800      5.99669305
  H      4.90069765      0.97769819      5.56157538
  H      4.90118390     -0.79330379      5.32268038
 Cl      2.79950671      4.64690858     10.49928473
 Cl     -1.44153740      3.78708623      5.74693982
 Cl      4.94030224     -2.42745288      3.29790151
 Cl     26.25502602     29.16246939      7.28759692
 Cl      1.20621396      2.44090331      1.26739385

