#B3LYP/6-31+G(d) OPT FREQ

62, Energy =    -96.28822236 au

0 1
  N      4.50398737      5.74867382      2.49159169
  C      3.50587001      4.98813803      2.05335561
  N      2.71410989      4.68755648      3.07577498
  C      3.21716665      5.27629743      4.19626988
  C      4.34224439      5.94764474      3.82734773
  C      5.57779899      6.28019184      1.69303598
  C      5.24163937      7.68421674      1.20144184
  C      1.54992161      3.85289565      3.03043666
  H      3.43367893      4.56557840      1.06007404
  H      2.76569315      5.12636677      5.15512482
  H      5.07715343      6.47922815      4.39895528
  H      6.46901299      6.30263947      2.33228710
  H      5.73254815      5.60790834      0.84753761
  H      6.06392170      8.06682266      0.60394258
  H      5.08905722      8.35259139      2.04556028
  H      4.34037803      7.67279502      0.59012266
  H      1.56471335      3.20154652      3.91163398
  H      1.57015829      3.25740186      2.12186262
  H      0.64340358      4.46011505      3.05260297
  N      3.98304109     -0.69825887      3.77595691
  C      4.89797705     -0.92865191      2.83657635
  N      4.67982078     -0.11072853      1.81166006
  C      3.61699587      0.68707808      2.11804503
  C      3.17967293      0.32311790      3.35036504
  C      3.95347579     -1.28269784      5.09342326
  C      4.62720426     -0.34280566      6.08596898
  C      5.52907752      0.03424927      0.66556977
  H      5.64463845     -1.69319510      2.87212688
  H      3.29511563      1.45228935      1.43816823
  H      2.42317362      0.74301040      3.98439518
  H      2.90973219     -1.45110497      5.37413001
  H      4.47909451     -2.24041318      5.05131872
  H      4.70635448     -0.81588527      7.06079768
  H      4.04257183      0.56862627      6.17728718
  H      5.62073993     -0.09542751      5.72114930
  H      5.20255250      0.90761872      0.10095658
  H      5.48552492     -0.85321532      0.03215958
  H      6.55162802      0.17750120      1.01890278
  N      7.07708933      3.19461971      2.89945522
  C      7.32474996      3.26148306      4.20090243
  N      6.20129011      3.03564796      4.86771197
  C      5.20388018      2.82142800      3.96783547
  C      5.75372287      2.92156302      2.72977807
  C      8.03210366      3.41968753      1.84532091
  C      9.19144766      2.43156473      1.92965073
  C      6.02314781      3.08317422      6.28944701
  H      8.28229838      3.44115993      4.64217535
  H      4.20567179      2.60669211      4.29700650
  H      5.31336143      2.83510851      1.75532031
  H      7.49800117      3.30508470      0.89980461
  H      8.39456155      4.44937086      1.93451844
  H      9.74228537      2.41534501      0.99319058
  H      8.80725674      1.43597001      2.13848703
  H      9.87317506      2.70512486      2.73024027
  H      6.59925321      2.29344760      6.77346932
  H      4.96492576      2.94728089      6.50638022
  H      6.35397393      4.05373025      6.66158791
 Cl      4.00046890      2.98842274     -0.34532300
 Cl      7.56040207      6.03374157      4.32160235
 Cl      7.26136287      0.06059496      3.66387469
 Cl     -3.12967693     34.83686118     25.70668607
 Cl      2.32561519      2.39045496      5.86135283

