62
Energy =    -96.26655380 au
  N      4.54294435      4.44663447      7.90871890
  C      3.58022215      4.95441339      8.66849244
  N      3.45699090      6.24637365      8.40689078
  C      4.36287316      6.57438945      7.44538251
  C      5.04167064      5.44212246      7.12333776
  C      4.93516127      3.06135494      7.84103136
  C      3.98021823      2.27971845      6.94111214
  C      2.50696729      7.10131672      9.04856786
  H      3.01831799      4.42508327      9.40876896
  H      4.44811570      7.57311702      7.06955569
  H      5.84729985      5.24748577      6.44094112
  H      5.95084966      3.02734459      7.43606354
  H      4.91980972      2.65700075      8.85690817
  H      4.09639943      1.21244568      7.10746140
  H      4.18958264      2.49398337      5.89664543
  H      2.95252100      2.56763238      7.15401052
  H      1.51543768      6.66484819      8.91735276
  H      2.54534695      8.09458187      8.60733589
  H      2.74798346      7.15427881     10.11174460
  N      7.78410578      5.29983877     10.09434953
  C      7.92454763      5.40418365      8.77665080
  N      7.95673935      6.69292360      8.44504226
  C      7.82168048      7.43192085      9.58404473
  C      7.70259922      6.55423699     10.61608352
  C      7.57196299      4.09418704     10.85691017
  C      8.08802875      2.85561901     10.14680402
  C      8.11034011      7.17791625      7.10311679
  H      7.98204984      4.62332064      8.02621608
  H      7.80026114      8.50184725      9.57777959
  H      7.54179918      6.72750970     11.65844682
  H      8.07167388      4.21948233     11.82250671
  H      6.49104323      4.03839608     11.04561550
  H      7.91870054      1.98582929     10.77627524
  H      9.15539932      2.93988222      9.94941342
  H      7.57540386      2.70078164      9.20275202
  H      9.02959022      7.75765287      7.00938582
  H      7.26215379      7.80417126      6.83048702
  H      8.15118376      6.30981234      6.44003897
  N      2.11113392      5.40948770      4.46725529
  C      0.83808778      5.48765561      4.84149910
  N      0.61521928      6.67797833      5.38672228
  C      1.76396278      7.40404541      5.30286036
  C      2.70212371      6.61299617      4.72545419
  C      2.72488096      4.29108600      3.80090069
  C      2.59679685      4.44002084      2.28708779
  C     -0.65938871      7.09913549      5.87811086
  H      0.13339812      4.68466997      4.80684744
  H      1.82361882      8.41420328      5.65348920
  H      3.72901877      6.79917754      4.48625097
  H      3.77422410      4.24285609      4.10659284
  H      2.21466375      3.38681969      4.13948708
  H      2.85772290      3.50970901      1.79003960
  H      3.24925902      5.23003115      1.92426099
  H      1.56974350      4.70702412      2.04295154
  H     -1.37684974      7.03787615      5.05690803
  H     -0.59490395      8.12122177      6.24440227
  H     -0.96768271      6.43132161      6.68356726
 Cl      7.88811530      3.99384780      5.98818294
 Cl      4.93528862      5.89127531     11.07443896
 Cl     34.58292878     28.38005072    -21.41907008
 Cl      1.16309814      4.42343964      7.44278077
 Cl     -0.43121324      6.12031471      2.63231205
