#B3LYP/6-31+G(d) OPT FREQ

62, Energy =    -96.26218425 au

0 1
  N     -0.74675381      4.35594791      4.10936915
  C     -0.78513057      3.92203402      2.85315153
  N      0.28364166      3.16667253      2.62818900
  C      1.02282877      3.11490118      3.77228562
  C      0.37938333      3.86952142      4.70288654
  C     -1.73844440      5.22890627      4.69324128
  C     -2.07964458      4.81089564      6.11566727
  C      0.68306649      2.57906401      1.38134434
  H     -1.62951270      4.12718452      2.19674850
  H      1.96460534      2.60782557      3.80387398
  H      0.66670907      4.11852462      5.70627994
  H     -1.34486179      6.25057179      4.69454659
  H     -2.61424055      5.18785245      4.03418755
  H     -2.87948803      5.44061391      6.49475820
  H     -1.21656305      4.91758624      6.76880217
  H     -2.41463621      3.77666090      6.13568159
  H      1.74553163      2.79643189      1.23797943
  H      0.09660510      3.00893783      0.57498107
  H      0.53928421      1.49862058      1.40295041
  N      1.00655181      9.03938417      9.07316957
  C      2.27511378      8.65915488      8.92246376
  N      2.44029687      7.46443012      9.47893161
  C      1.24357324      7.06017955      9.98449591
  C      0.34494385      8.05085313      9.74072375
  C      0.49244525     10.30972530      8.61467553
  C     -0.85758512     10.16875034      7.92589304
  C      3.63787348      6.67906706      9.45052302
  H      3.00126543      9.23331213      8.35155821
  H      1.11133126      6.10257129     10.44186225
  H     -0.69721361      8.09928371      9.97370741
  H      0.40766861     10.98708149      9.47232223
  H      1.24330388     10.71325759      7.92702739
  H     -1.12372100     11.11514070      7.46325440
  H     -1.63977903      9.89974400      8.63194382
  H     -0.80538237      9.40841650      7.15291841
  H      3.46331141      5.83786568      8.77158509
  H      3.86754644      6.30458564     10.44800259
  H      4.45441110      7.29120965      9.07711402
  N      3.03940974      7.10197033      4.82110968
  C      3.19201100      5.79824102      4.62593480
  N      4.17698242      5.35638581      5.39016761
  C      4.66055483      6.40838352      6.10726596
  C      3.94427561      7.50889469      5.75310608
  C      2.02823402      7.93846701      4.22796991
  C      1.08397893      8.44978763      5.31164610
  C      4.59628990      3.98654341      5.45750900
  H      2.67569458      5.18166003      3.91318611
  H      5.46695872      6.29703353      6.80184576
  H      3.98488911      8.52962672      6.09539028
  H      2.51296377      8.78074209      3.72779018
  H      1.49468766      7.33976651      3.48729046
  H      0.20802295      8.90237445      4.85486456
  H      1.59751345      9.19308843      5.91844032
  H      0.78149190      7.62155288      5.94894915
  H      5.63996540      3.93157790      5.75785520
  H      4.46250818      3.54787355      4.46345505
  H      3.97543551      3.45064025      6.17611808
 Cl     34.62648698     23.95856860     16.55944959
 Cl     -3.65867614      4.64531455      1.94526108
 Cl      3.51315362     10.68081491      6.91560614
 Cl      1.55933561      5.40135775      7.40658722
 Cl      3.72833241      3.71004649      2.27674867

