62
Energy =    -96.25837477 au
  N      6.08272749      2.84301387      9.36315441
  C      6.09041271      2.76507377     10.68938729
  N      6.07445110      3.99524581     11.19017226
  C      6.05408241      4.88120402     10.15046794
  C      6.05398324      4.15424514      9.00100543
  C      6.04827666      1.74640520      8.42634003
  C      4.64068325      1.16729489      8.34087479
  C      6.08642153      4.30349508     12.59225431
  H      6.11586941      1.88683856     11.32915214
  H      6.03984532      5.94062454     10.30221595
  H      6.09299306      4.42654375      7.95558633
  H      6.35428685      2.15273028      7.45341866
  H      6.75288207      0.98076428      8.75686416
  H      4.62747941      0.35101571      7.62502532
  H      3.94351510      1.93144249      8.00619313
  H      4.32020578      0.79138275      9.31084600
  H      6.11008000      3.35135214     13.13833660
  H      5.19137727      4.86353046     12.86364898
  H      6.96794539      4.89445282     12.84129673
  N      4.35752503      3.26099761      1.34615172
  C      4.21453994      3.78894352      2.55919077
  N      3.88953080      2.83332982      3.41965552
  C      3.76924729      1.66700606      2.71998582
  C      4.05867371      1.93129021      1.41996830
  C      4.63143025      3.99590095      0.13751866
  C      5.69300410      3.30633267     -0.70729489
  C      3.63883286      3.04079083      4.81636786
  H      4.41342239      4.80583463      2.82713291
  H      3.49322960      0.74788524      3.19391589
  H      4.08212685      1.29041231      0.55344443
  H      3.69672136      4.08083715     -0.42577919
  H      4.94837591      4.99998874      0.43193006
  H      5.91271958      3.91182440     -1.58289187
  H      5.33938107      2.33272117     -1.04144016
  H      6.60815690      3.17160653     -0.13454836
  H      4.56534721      3.34484671      5.31847932
  H      3.26866404      2.11781777      5.25649376
  H      2.89137797      3.82738866      4.92441837
  N      0.94291634      1.77475086     -0.09060769
  C      0.05042388      2.62485621      0.40691809
  N      0.13255958      3.77309389     -0.24513375
  C      1.10174110      3.65370894     -1.19261165
  C      1.61021793      2.39532715     -1.10146954
  C      1.07896465      0.38267056      0.25403043
  C     -0.01875393     -0.42361285     -0.43659243
  C     -0.70281291      4.90554029      0.01387371
  H     -0.62021829      2.43015575      1.21702603
  H      1.35191397      4.46041083     -1.85143056
  H      2.40305055      1.89155824     -1.62482774
  H      2.06788065      0.05530285     -0.07870676
  H      1.00239646      0.28597558      1.33974617
  H     -0.06323601     -1.42935400     -0.02713646
  H      0.18421153     -0.48774499     -1.50252623
  H     -0.98160167      0.06649562     -0.30144176
  H     -1.73543048      4.55300666      0.05489615
  H     -0.58467300      5.63755492     -0.78195716
  H     -0.41278376      5.34789082      0.96868823
 Cl     -2.57307236      2.15314613     -0.49743781
 Cl      1.80915412      4.82295320      2.20630411
 Cl      6.15736847      1.12787661     13.36552920
 Cl      4.16035467      0.23032724     -1.45551564
 Cl      6.72199151      3.83524658      5.91289837
