#B3LYP/6-31+G(d) OPT FREQ

62, Energy =    -96.26918516 au

0 1
  N      1.23001975      2.62407881      6.60391509
  C      0.74530067      3.23165191      5.52527898
  N     -0.35384978      2.59821941      5.12673755
  C     -0.57913901      1.56119855      5.98164903
  C      0.41497234      1.58115556      6.91201145
  C      2.41544921      3.01453577      7.32218721
  C      2.08397025      4.03617038      8.40411601
  C     -1.15315175      2.91149608      3.97913795
  H      1.24248290      4.03478908      5.01189283
  H     -1.38812725      0.87847433      5.82641817
  H      0.65368439      0.91540143      7.71797474
  H      2.83601302      2.10562374      7.76818499
  H      3.10721024      3.44338515      6.59523793
  H      2.99191369      4.30581252      8.93512996
  H      1.37807014      3.61706660      9.11777803
  H      1.65549828      4.93693714      7.96745112
  H     -2.12117152      3.30881375      4.28713367
  H     -1.31861424      1.98248595      3.40787526
  H     -0.63717692      3.64766839      3.36800063
  N      2.44446192      1.20126956      3.01025916
  C      3.63895084      1.42405070      3.54817910
  N      3.69196993      0.84622231      4.74263102
  C      2.49596104      0.23397256      4.97426153
  C      1.70779217      0.45911965      3.88955618
  C      1.97856168      1.73104927      1.75272727
  C      1.35082041      0.64946127      0.88650931
  C      4.78865136      0.89456010      5.66718521
  H      4.43397851      1.98184393      3.09507491
  H      2.31402043     -0.26773775      5.90645944
  H      0.69321214      0.16108263      3.67196311
  H      1.24039461      2.50981683      1.96226712
  H      2.83447500      2.19768139      1.25803844
  H      1.07701448      1.06772997     -0.07806452
  H      0.44985002      0.26676192      1.36325831
  H      2.04755931     -0.17105764      0.72924868
  H      5.60363406      0.25103695      5.33164123
  H      4.42316232      0.54636248      6.63950097
  H      5.14446450      1.92001354      5.75027111
  N      6.66046611      4.28753585      4.05731247
  C      6.15148526      5.31435407      3.36903347
  N      5.81382830      4.88768683      2.14812186
  C      6.23916836      3.59567561      2.01638396
  C      6.76752577      3.22064671      3.20674951
  C      7.16735588      4.36578770      5.40276779
  C      6.12969788      4.97083892      6.34452472
  C      5.26395405      5.73179462      1.13099779
  H      5.79453050      6.22274134      3.80534186
  H      6.12711132      3.05156606      1.10036226
  H      7.19895466      2.29067405      3.51655290
  H      7.42734662      3.35144102      5.71592699
  H      8.07603614      4.97835584      5.38632822
  H      6.33911109      4.68718203      7.37205903
  H      5.13838283      4.61602645      6.07263701
  H      6.13333498      6.05454346      6.27428137
  H      4.28129234      6.08954096      1.44274706
  H      5.17145699      5.17386282      0.20169563
  H      5.93265462      6.58373677      0.98792871
 Cl     15.60872657     38.89452214      3.25795598
 Cl      8.16512567      6.57291851      2.83795547
 Cl      3.38587975      4.18023502      4.07458870
 Cl      2.96493486     -0.12356414      8.26201161
 Cl     -1.39387533     -0.10378709      2.87818197

