#B3LYP/6-31+G(d) OPT FREQ

62, Energy =    -96.26464580 au

0 1
  N      3.84920957      4.23441754      1.84166954
  C      2.85974765      3.34635150      1.88162952
  N      2.11664808      3.56740920      2.96154279
  C      2.60820246      4.66665785      3.59935699
  C      3.69317406      5.08493008      2.89792341
  C      4.85633818      4.34793460      0.81798183
  C      4.53804060      5.52536516     -0.09635901
  C      0.96013388      2.83316654      3.38143441
  H      2.73589683      2.53132077      1.20029194
  H      2.17467434      5.01022036      4.51617463
  H      4.37159979      5.89406632      3.06862943
  H      5.83401251      4.45308903      1.30033989
  H      4.84675119      3.42176354      0.24073020
  H      5.23224462      5.54922301     -0.93205973
  H      4.60794970      6.46498170      0.44663011
  H      3.52243078      5.41028063     -0.47093425
  H      0.06019532      3.30282149      2.98134636
  H      0.93425722      2.83456879      4.47652914
  H      1.01868200      1.81254605      3.00889085
  N      8.74549527      5.92907511      5.79400289
  C      8.66921143      4.64787553      5.44765303
  N      9.17822059      3.91157561      6.43246534
  C      9.60026594      4.74072920      7.42590607
  C      9.32737506      6.01022369      7.02370104
  C      8.27294418      7.07666464      5.05369456
  C      7.10420134      6.74147248      4.14188530
  C      9.26348365      2.48006582      6.48813497
  H      8.31085467      4.26564025      4.49435713
  H     10.00374612      4.33945751      8.33710771
  H      9.43373231      6.94646000      7.53024999
  H      7.96590065      7.81263549      5.80581483
  H      9.10517176      7.48332606      4.46845777
  H      6.81130943      7.63668806      3.59906870
  H      6.25851969      6.40781996      4.73749381
  H      7.36109476      5.96391171      3.42563952
  H      9.33223150      2.18830764      7.53994865
  H     10.15213865      2.13078134      5.95971379
  H      8.38496426      2.03852156      6.02245558
  N      5.59571024      3.96738473      7.40543608
  C      6.21439245      4.98533211      7.99738730
  N      6.83544571      4.54311596      9.08718806
  C      6.61368586      3.20845366      9.19886584
  C      5.83312429      2.84711770      8.14479377
  C      4.77987922      3.99487230      6.21634710
  C      5.31123573      3.05420038      5.13803848
  C      7.60726367      5.33020678     10.00384981
  H      6.24208050      6.01982951      7.68648140
  H      7.07869115      2.62452643      9.96626506
  H      5.40899894      1.89948144      7.88731193
  H      3.75486635      3.68548127      6.48391409
  H      4.74184016      5.02209836      5.85410251
  H      4.50483810      2.81444092      4.45332686
  H      5.65200632      2.12102095      5.57911989
  H      6.12600950      3.48886843      4.56514898
  H      8.54314753      4.80623554     10.20371340
  H      7.06069911      5.44996423     10.94065404
  H      7.78528769      6.30985806      9.56130432
 Cl      9.71060617      2.58101669      9.89068721
 Cl      1.23014487      4.22617718     -0.03979220
 Cl      7.19333003      8.12216986      8.03965270
 Cl      1.63538419      3.12384889      6.65430828
 Cl      7.81787962      3.72704700      2.51756198

