#B3LYP/6-31+G(d) OPT FREQ

62, Energy =    -96.20799264 au

0 1
  N      6.24748715      1.25751447      2.86386870
  C      5.76800364      2.28348638      3.60625174
  N      5.33187493      1.78169758      4.79284733
  C      5.57730787      0.43056120      4.79166507
  C      6.14337335      0.11360866      3.60118893
  C      6.81426143      1.40292435      1.54985345
  C      8.33993368      1.39570844      1.59994795
  C      4.72567122      2.53885063      5.84533110
  H      5.62640030      3.28091913      3.22731640
  H      5.32849942     -0.19277600      5.62642837
  H      6.46460425     -0.83743614      3.22798155
  H      6.45220396      0.58786581      0.91683444
  H      6.45727549      2.35688678      1.15102920
  H      8.73734248      1.52119222      0.59749273
  H      8.71312786      0.45862847      2.01059140
  H      8.69626410      2.21675371      2.21692867
  H      5.41563633      2.66583592      6.68505368
  H      3.82693447      2.03445482      6.20580091
  H      4.45498072      3.51930975      5.45965220
  N      3.95364861      9.74140043      0.70059028
  C      4.98552543      9.54401912      1.51913677
  N      5.21869069      8.23839165      1.60014818
  C      4.31947602      7.58201217      0.81934433
  C      3.52403989      8.52680507      0.24993504
  C      3.41548112     11.03560072      0.35266597
  C      4.47321925     11.89896062     -0.32344980
  C      6.24693558      7.60888985      2.37899914
  H      5.52954821     10.35099101      2.02284229
  H      4.32791238      6.50954178      0.74300725
  H      2.70059903      8.42309727     -0.42605088
  H      2.55279810     10.87621556     -0.29926488
  H      3.08765999     11.53371871      1.26894813
  H      4.03106479     12.83998048     -0.63764086
  H      4.88460950     11.39315829     -1.19422628
  H      5.26869208     12.10705155      0.38953040
  H      7.22401789      7.97484827      2.06531540
  H      6.18359614      6.52815084      2.22057378
  H      6.10900272      7.83805179      3.43558664
  N      9.30676550     11.18483700      1.75332018
  C      8.97596629     12.42893973      1.39969402
  N      8.28706104     12.38334159      0.25683219
  C      8.27381952     11.08880042     -0.17979807
  C      8.90279654     10.33858983      0.75574274
  C      9.98557126     10.81600907      2.96588281
  C      8.99689539     10.26448317      3.99004709
  C      7.84993187     13.54759969     -0.45242748
  H      9.01778924     13.27890050      2.04752889
  H      7.81890871     10.80762910     -1.10718220
  H      9.10663708      9.28807151      0.78727491
  H     10.75697211     10.07736051      2.72755165
  H     10.47502178     11.71385702      3.34627981
  H      9.45406383     10.22258779      4.97388426
  H      8.67200692      9.26466700      3.71293860
  H      8.12155737     10.90863157      4.02980826
  H      7.13102160     14.09931152      0.15489306
  H      7.38814772     13.25379404     -1.39242155
  H      8.72231130     14.17827343     -0.64334869
 Cl      5.34901368      4.52081687      1.41796599
 Cl      6.24412405     12.14785834      2.65805560
 Cl     11.10138206     13.29591650      0.52924064
 Cl    -18.00463033      3.67354864    -26.69370689
 Cl      5.62536828    -13.03233463     20.90827563

