#B3LYP/6-31+G(d) OPT FREQ

62, Energy =    -96.26868076 au

0 1
  N      8.35931657      6.51221552      4.08958139
  C      9.21250490      6.07659761      5.01008490
  N      9.23204448      4.74750480      4.98742986
  C      8.37409434      4.31687123      4.02725931
  C      7.82530563      5.42703727      3.46135470
  C      8.03741811      7.87718288      3.74823505
  C      8.76263358      8.88553305      4.61956644
  C     10.02491377      3.91659821      5.84505822
  H      9.87837300      6.66103864      5.61925174
  H      8.26720236      3.27032727      3.81300088
  H      7.14108379      5.53557691      2.64710220
  H      8.29493063      8.00431975      2.68448216
  H      6.95432310      8.00335033      3.84752374
  H      8.48255276      8.77418365      5.66565574
  H      8.49630789      9.88793405      4.29714314
  H      9.83922862      8.77351328      4.53198739
  H     10.98850482      4.40160094      6.00034116
  H     10.12745211      2.93590597      5.37637085
  H      9.53331847      3.79482152      6.81113747
  N     12.01830637      3.61206322      3.06080148
  C     12.33976733      4.88399406      3.27713389
  N     11.55068688      5.65904418      2.53967923
  C     10.70500105      4.86778940      1.82846526
  C     10.99788543      3.57952659      2.15582887
  C     12.59792352      2.42833977      3.64891104
  C     13.59119264      2.74452695      4.75298423
  C     11.58064559      7.09273198      2.50968217
  H     13.02909858      5.26641797      4.00463100
  H      9.96088860      5.30232820      1.18437121
  H     10.53391904      2.65545915      1.87968370
  H     11.75750868      1.82205468      4.02075046
  H     13.08694604      1.85676816      2.85204787
  H     13.91887245      1.81686765      5.21322467
  H     13.13180830      3.36257282      5.51809174
  H     14.46492489      3.26333645      4.36234477
  H     11.66974799      7.45550185      3.53381776
  H     10.66625551      7.44451642      2.02843279
  H     12.44073715      7.44094865      1.93577075
  N     -3.50864405      9.66839223     10.18230499
  C     -4.78020914      9.37828985     10.43526181
  N     -5.12515829      8.29460459      9.75209868
  C     -4.04871713      7.88926017      9.02410172
  C     -3.03275311      8.74607408      9.29482614
  C     -2.75789988     10.72073919     10.81016816
  C     -2.04313590     10.18554061     12.04831070
  C     -6.42298665      7.69816031      9.81437996
  H     -5.41359992      9.90048363     11.11908329
  H     -4.08380964      7.03538252      8.37861062
  H     -2.02785759      8.77548210      8.92647837
  H     -2.04823477     11.12625082     10.08247472
  H     -3.46599728     11.50543479     11.08265888
  H     -1.66399053     11.00278306     12.65606523
  H     -1.21415860      9.54091773     11.76427098
  H     -2.74728363      9.59393720     12.63198435
  H     -6.61391738      7.40315666     10.84858240
  H     -6.46060858      6.82723525      9.16322281
  H     -7.16182866      8.43669889      9.49785650
 Cl      8.75993998      7.26853400      0.64908546
 Cl     12.21847805      6.60604034      5.84686415
 Cl     -5.90373596     11.06846245      8.72388655
 Cl     -4.57342142      7.86768352     12.76458158
 Cl      9.62195037      1.15738160      3.95374651

