#B3LYP/6-31+G(d) OPT FREQ

62, Energy =    -96.26885533 au

0 1
  N      2.03280097      3.55482045      4.09985339
  C      2.80385136      4.38835806      3.40488436
  N      4.03998067      3.90058406      3.35957205
  C      4.03917891      2.67853893      3.96207368
  C      2.78298828      2.46015558      4.42844862
  C      0.63212928      3.75444609      4.37098331
  C     -0.21951341      3.22628549      3.22292521
  C      5.14627338      4.48070726      2.65918234
  H      2.50223774      5.36253062      3.07950630
  H      4.93123463      2.08938696      4.02456265
  H      2.37530230      1.63167231      4.97107688
  H      0.38898238      3.24488362      5.30735425
  H      0.48170154      4.82760446      4.50764418
  H     -1.24430334      3.57553597      3.31877261
  H     -0.21356943      2.13790294      3.20990088
  H      0.19902031      3.57797775      2.28177691
  H      5.07625682      4.21413111      1.60244982
  H      6.07824357      4.10507267      3.08509494
  H      5.10025881      5.56354849      2.75289869
  N      3.27172286      3.81766138      7.50472203
  C      4.02117427      2.78380535      7.87760427
  N      5.18730400      2.86371336      7.24446700
  C      5.18307290      3.97238319      6.45227499
  C      3.97409081      4.57244050      6.61564115
  C      1.93901695      4.11354883      7.97254915
  C      1.92217785      4.27652158      9.48789207
  C      6.28765191      1.94852086      7.34972920
  H      3.71838157      2.02050147      8.60036706
  H      6.02306770      4.19029227      5.81908370
  H      3.52812657      5.43611934      6.15641693
  H      1.61424325      5.02259866      7.45808580
  H      1.28016194      3.28453520      7.69852530
  H      0.92108160      4.54344859      9.81412113
  H      2.60956149      5.06110154      9.79660082
  H      2.20686781      3.33904429      9.96315207
  H      6.94644433      2.11174084      6.49335020
  H      5.91892661      0.92430990      7.36092565
  H      6.84413248      2.12882450      8.27101409
  N      5.23328083      7.52633935      6.68030507
  C      6.48155107      7.09532299      6.85073421
  N      7.06845221      6.97739741      5.66501988
  C      6.18145247      7.38545749      4.71369786
  C      5.03253964      7.73248679      5.34867724
  C      4.28255923      7.84339866      7.71574905
  C      4.43041712      9.30530261      8.12701983
  C      8.40442694      6.51351533      5.43409994
  H      6.91905597      6.81711363      7.78640282
  H      6.43969827      7.40311327      3.67533598
  H      4.08307091      8.05318376      4.97345248
  H      3.28212664      7.64009183      7.32008713
  H      4.47971715      7.19025148      8.56906436
  H      3.84837693      9.50554221      9.02244801
  H      4.08597143      9.95829412      7.32894382
  H      5.48042510      9.51884926      8.32004562
  H      9.00830476      6.74667834      6.30721358
  H      8.81971667      7.02015696      4.56559391
  H      8.40133172      5.43256929      5.24862104
 Cl      7.79624953      3.28151314      4.57581409
 Cl      1.77336740      6.76982645      5.60537644
 Cl      2.23896909      3.80895409      0.90450751
 Cl      2.91548268      0.83683062     10.08938907
 Cl      7.91307587      9.18365777      7.72467533

