#B3LYP/6-31+G(d) OPT FREQ

62, Energy =    -96.26715156 au

0 1
  N      1.48549509      2.20490940      7.61701854
  C      1.15270205      1.56204028      8.73604792
  N      2.13375078      0.72874670      9.06834178
  C      3.14012615      0.86776110      8.15808920
  C      2.74132814      1.79901198      7.25322965
  C      0.70163301      3.26388101      7.02629331
  C      0.98864041      3.43783169      5.54418760
  C      2.20408844     -0.08729902     10.24676074
  H      0.20694494      1.63209146      9.23107463
  H      4.03237134      0.27530507      8.25352231
  H      3.25617491      2.22031175      6.41371363
  H     -0.35316888      3.02111856      7.18900177
  H      0.91829919      4.18570313      7.57771264
  H      0.33155490      4.19966823      5.13379667
  H      0.81257381      2.50630895      5.01072040
  H      2.01837504      3.74449564      5.38056391
  H      3.19329495     -0.55220730     10.27662175
  H      1.43377609     -0.85947565     10.22952754
  H      2.06443184      0.54139788     11.12579300
  N      6.05100262      2.15351498      8.70383753
  C      5.52143703      3.22532517      8.12338171
  N      4.64670545      3.78258935      8.95290155
  C      4.61599445      3.05126974     10.09905067
  C      5.49963542      2.02715579      9.94380188
  C      6.97980718      1.20730224      8.13087612
  C      6.97330164      1.24012483      6.61208059
  C      3.81904697      4.91525416      8.65418426
  H      5.69435937      3.56836337      7.12029236
  H      3.93237527      3.28131618     10.89122607
  H      5.72166377      1.18458105     10.56725226
  H      7.98384996      1.41578313      8.51530441
  H      6.66657263      0.21836231      8.49769684
  H      7.57779202      0.41952699      6.23615522
  H      7.37998323      2.17148563      6.22403512
  H      5.96034347      1.11992127      6.23795194
  H      2.84606265      4.75304647      9.12624297
  H      3.72106658      4.99485147      7.57301045
  H      4.26028504      5.83162706      9.04914728
  N      2.38932737      6.03020921      1.72983862
  C      2.78939183      5.82628977      2.98414050
  N      2.27477638      6.78024162      3.76184784
  C      1.52643544      7.61062287      2.97085446
  C      1.59759352      7.13641548      1.69866148
  C      2.68386164      5.20417764      0.58401262
  C      1.99381933      3.84945726      0.70932038
  C      2.48502956      6.89264605      5.17799256
  H      3.43032281      5.04114449      3.34643937
  H      1.01195418      8.46113317      3.36772064
  H      1.19315369      7.47299038      0.74930493
  H      2.30716013      5.74853753     -0.29527048
  H      3.76759247      5.07378523      0.51026955
  H      2.22899458      3.24242733     -0.15965854
  H      0.91644924      3.98711471      0.74982938
  H      2.32063940      3.32361422      1.60534303
  H      1.53339721      6.83617825      5.70929626
  H      2.96933357      7.84080880      5.41624387
  H      3.12938267      6.06778564      5.49094763
 Cl      4.44059649      4.12737317      5.23008459
 Cl      5.35602462     -1.18111567      9.66601398
 Cl      1.12370802      7.31822031     -1.40644426
 Cl     -1.78829055     36.78187740     25.95799423
 Cl      1.36350252      3.58814667     10.42595686

