62
Energy =    -96.14997517 au
  N     11.15447662      2.17338987     11.11539611
  C     10.19668564      2.72541814     11.93715962
  N     10.80269395      3.06678028     13.11608759
  C     12.11456907      2.69444910     13.03946175
  C     12.33662207      2.16322043     11.81446306
  C     11.00421435      2.03504957      9.68982422
  C     11.02373184      3.39143091      8.99331363
  C     10.16301028      3.80309147     14.16257151
  H      9.26621384      3.14567716     11.61487908
  H     12.79044756      2.83756689     13.85845754
  H     13.23507961      1.76955958     11.38870843
  H     11.80970833      1.39804749      9.31769465
  H     10.05042945      1.53982603      9.49183607
  H     10.73258774      3.27045329      7.95347713
  H     12.01413798      3.83976114      9.04077897
  H     10.31845379      4.05745155      9.48289103
  H      9.41583164      4.45788072     13.70893295
  H     10.89399659      4.40671401     14.69497412
  H      9.67551773      3.13253250     14.87137113
  N      9.66183312      7.49601810      8.83220484
  C      8.55530299      6.72797695      9.03671870
  N      8.54508461      5.74313253      8.11123113
  C      9.62388597      5.90285585      7.29721781
  C     10.32880668      6.96885307      7.74465589
  C     10.20876067      8.38524819      9.81714266
  C     10.89914420      7.59705284     10.92924684
  C      7.64231382      4.63420595      8.08891731
  H      7.93757616      6.75821299      9.91123596
  H      9.81928136      5.20846546      6.50160037
  H     11.23539021      7.40568124      7.38257278
  H     10.91482007      9.05772130      9.32026429
  H      9.39407454      8.97935391     10.24014043
  H     11.26253622      8.26592885     11.70522584
  H     11.73754317      7.03458281     10.52414116
  H     10.19299805      6.89748892     11.36548506
  H      7.50874625      4.26547787      9.10472255
  H      8.08149408      3.86439788      7.45339255
  H      6.66902114      4.92528225      7.68618815
  N      4.33079035      2.28154637      7.03906481
  C      5.16482857      1.57840637      7.81978663
  N      6.37963863      1.59679560      7.26623544
  C      6.29516789      2.21974776      6.05174670
  C      5.01947422      2.64764398      5.90897487
  C      2.91202610      2.38022016      7.25429157
  C      2.57028997      3.45016694      8.28724939
  C      7.55229537      0.94491028      7.76993827
  H      4.96204658      1.30254924      8.83367679
  H      7.16550995      2.34314299      5.43727900
  H      4.54388955      3.17369582      5.10843639
  H      2.43880695      2.61541048      6.29870480
  H      2.57346752      1.39405971      7.58438372
  H      1.49460672      3.48869188      8.43478183
  H      2.91116879      4.42739923      7.95288329
  H      3.04402227      3.22597127      9.23898107
  H      7.66410688      1.15695072      8.83367223
  H      8.41558961      1.32464419      7.21866728
  H      7.46055408     -0.13444160      7.63186753
 Cl      4.26475886     -0.67280272      7.43954144
 Cl      9.57940953      2.88999078      5.82992958
 Cl      8.24680012      5.38839287     11.87669579
 Cl    -15.23827978     22.39808050     -7.07570430
 Cl    -13.44198798     22.63988170     -9.07537639
