#B3LYP/6-31+G(d) OPT FREQ

62, Energy =    -96.23663202 au

0 1
  N      4.00647324      3.49948448      1.77466116
  C      3.66104430      3.95433799      2.99225341
  N      3.33302942      2.90233184      3.77485046
  C      3.50118407      1.76611381      3.02312644
  C      3.90540073      2.14084940      1.78523280
  C      4.47276970      4.27393519      0.65115271
  C      5.26843345      5.49343515      1.09939872
  C      3.17909643      2.96400690      5.19659289
  H      3.70595240      4.96681826      3.32804424
  H      3.31820068      0.79239493      3.42706306
  H      4.19355181      1.57001584      0.92276217
  H      5.08784926      3.59414479      0.04789669
  H      3.61311841      4.58331071      0.04385467
  H      5.85660219      5.87567559      0.27052189
  H      5.93612164      5.22024153      1.91291347
  H      4.61391178      6.29006370      1.44803174
  H      4.15061458      3.17906288      5.65243181
  H      2.80896030      2.01039717      5.56871970
  H      2.48125393      3.75776744      5.46843585
  N     10.34995218      4.33281278      4.35013938
  C      9.43853495      3.38805330      4.60662123
  N      9.46434586      3.11438065      5.91135650
  C     10.50819805      3.79977886      6.47204418
  C     11.05869397      4.56356486      5.49777805
  C     10.58923866      4.87478834      3.03963609
  C      9.49138422      5.86457751      2.65774824
  C      8.62102688      2.14447651      6.54230546
  H      8.62571471      3.12106086      3.96042435
  H     10.76672921      3.69357467      7.50524212
  H     11.88630076      5.24150561      5.52688500
  H     11.56675113      5.36252591      3.03960144
  H     10.61445897      4.03201089      2.34160167
  H      9.62385749      6.19604467      1.63148035
  H      9.52141729      6.73411322      3.31026416
  H      8.51552530      5.39699647      2.76245280
  H      7.61470963      2.24923244      6.13590302
  H      8.60839186      2.30860562      7.61841040
  H      8.98924052      1.13920341      6.32495051
  N      7.75423901      1.01702648      2.02350321
  C      7.59730527      2.22539041      1.50011814
  N      8.52629053      2.42842111      0.57340865
  C      9.26299479      1.28778389      0.46309549
  C      8.78504778      0.40629394      1.37905573
  C      6.92397082      0.47791051      3.07409373
  C      7.69838005     -0.48491118      3.96268469
  C      8.54445554      3.54137389     -0.33063546
  H      6.87194229      2.93814189      1.84155894
  H     10.06808874      1.19017265     -0.23540993
  H      9.11763677     -0.58071086      1.61821993
  H      6.56055348      1.33261794      3.65238158
  H      6.06151070     -0.01547372      2.61213549
  H      7.16368550     -0.63526782      4.89611538
  H      8.67872781     -0.06414524      4.17691613
  H      7.82843290     -1.45179434      3.48309781
  H      9.51255250      3.60499285     -0.82281955
  H      8.33602065      4.46244315      0.21032298
  H      7.75633982      3.37757336     -1.07346434
 Cl      6.35574989      3.78294252      4.19310816
 Cl    -36.10772653     21.65560758     26.29367768
 Cl     10.63472354      1.46299561      3.63773132
 Cl     21.02943104     33.54985491     12.24137319
 Cl      5.94398066      1.56901766     -0.68654167

