#B3LYP/6-31+G(d) OPT FREQ

62, Energy =    -96.25563495 au

0 1
  N      4.48648107      3.29526626      3.97319632
  C      4.97262865      3.17731299      5.20776418
  N      4.01320215      3.45953141      6.08152827
  C      2.87601230      3.74167124      5.38095834
  C      3.17031167      3.63185031      4.05946234
  C      5.17068492      2.98420607      2.74303379
  C      5.12070814      1.47997945      2.49117122
  C      4.14790890      3.40036595      7.50723922
  H      5.98377285      2.93664270      5.45844413
  H      1.95684540      3.99252414      5.86787559
  H      2.58778219      3.79328460      3.17138156
  H      4.66438530      3.52978565      1.94132796
  H      6.20631111      3.32329021      2.82679219
  H      5.80121841      1.21000337      1.68838590
  H      4.11273945      1.18521327      2.21144406
  H      5.39830928      0.94631283      3.39867131
  H      4.92974833      2.68115726      7.74367052
  H      3.21148758      3.05874097      7.94451876
  H      4.39471237      4.38550047      7.91766010
  N      1.22257325      8.20053551      1.76852542
  C      2.23013195      7.67891275      1.07194334
  N      2.97812595      8.67099921      0.60037911
  C      2.44130135      9.85609143      1.00021928
  C      1.33544771      9.55973774      1.73639855
  C      0.15102376      7.47539021      2.41088057
  C      0.67284534      6.27028004      3.18054561
  C      4.16966834      8.54571722     -0.19043922
  H      2.41344962      6.61945566      0.92594026
  H      2.88759157     10.78438113      0.68326917
  H      0.63014097     10.18477037      2.24692148
  H     -0.36936564      8.18379291      3.06452904
  H     -0.54937358      7.13604977      1.64075169
  H     -0.14956515      5.78937754      3.70237548
  H      1.42177698      6.56925316      3.90937390
  H      1.12528705      5.55153630      2.50140910
  H      5.00150278      8.21719894      0.43365142
  H      4.39960805      9.53335008     -0.61039575
  H      4.01660048      7.81503068     -0.98239859
  N      0.90281441      6.50153555      7.62844421
  C      1.78153736      7.37931473      7.15520709
  N      1.17444565      8.15686776      6.26603353
  C     -0.12655118      7.77067021      6.16423812
  C     -0.29932409      6.73018503      7.02197608
  C      1.18094851      5.53862673      8.66620090
  C      0.45678878      5.90896443      9.95547222
  C      1.75250111      9.23356171      5.51060132
  H      2.81497872      7.39625770      7.49076732
  H     -0.79977042      8.30341506      5.50803419
  H     -1.16906789      6.14355010      7.23305076
  H      0.86743942      4.54766792      8.32674026
  H      2.26576251      5.56042317      8.83283477
  H      0.68303006      5.17218575     10.72056509
  H     -0.62192600      5.94708009      9.81086463
  H      0.80121043      6.87954230     10.30211738
  H      2.28103196      9.91681290      6.17284155
  H      0.93717043      9.75533807      4.99859018
  H      2.45641176      8.84812074      4.77300646
 Cl      4.36373697     11.75811841     -0.88446304
 Cl      5.27709878      0.56974654      5.91785249
 Cl      4.32061109      6.55996840      8.79609132
 Cl     -1.22793987     10.04836935      4.20235280
 Cl      2.60137848      4.45955604      0.85883908

