62
Energy =    -96.27416996 au
  N      0.47541882      1.24985748      5.27815427
  C      1.40337868      0.30728838      5.41505694
  N      2.59904553      0.87498547      5.28450734
  C      2.42796014      2.20891376      5.05953211
  C      1.08882960      2.44513447      5.05743178
  C     -0.95344033      1.05682952      5.34256074
  C     -1.35672393      0.41882268      6.66528113
  C      3.87114902      0.21559156      5.37374877
  H      1.20955055     -0.74332061      5.64539221
  H      3.27069748      2.85315962      4.90007079
  H      0.50625262      3.33879983      4.91046006
  H     -1.41300571      2.03976451      5.20598368
  H     -1.25474110      0.40456933      4.51764464
  H     -2.43618970      0.30038495      6.69962727
  H     -1.04864399      1.04665101      7.49830976
  H     -0.89254331     -0.56086159      6.76651315
  H      3.84329679     -0.72238701      4.82185859
  H      4.11089905     -0.00253894      6.41563345
  H      4.63389087      0.87699986      4.95889066
  N      8.23411004      5.06030618      1.82835348
  C      8.26014444      6.20927152      1.16239884
  N      7.09367011      6.37240714      0.54861830
  C      6.30214905      5.29975610      0.83148837
  C      7.01753282      4.47432382      1.64135899
  C      9.30430454      4.57186918      2.66255302
  C      8.90191596      4.62891713      4.13176415
  C      6.67573515      7.48980238     -0.24737143
  H      9.14486331      6.84125311      1.11864342
  H      5.28894594      5.26464677      0.48243113
  H      6.73172796      3.56389389      2.13249731
  H      9.52596077      3.53980596      2.37726039
  H     10.17513791      5.20503436      2.46428032
  H      9.69915193      4.22063827      4.74617343
  H      7.99701325      4.04999432      4.30587894
  H      8.72520930      5.65900785      4.43193168
  H      7.23615696      8.37594922      0.04125278
  H      5.60382365      7.63785160     -0.07794383
  H      6.84384923      7.28840129     -1.30686737
  N      3.85382602      5.95169577      4.08537275
  C      3.43345095      5.17908012      3.09161232
  N      2.11014041      5.10384031      3.12734960
  C      1.66214451      5.86968228      4.15758371
  C      2.75757499      6.40211410      4.76062382
  C      5.22795839      6.30120012      4.33964335
  C      5.60725139      7.55799883      3.56397469
  C      1.26721843      4.41707554      2.19270931
  H      4.07941518      4.65534672      2.41856647
  H      0.61382183      5.92425804      4.38802329
  H      2.83948177      7.05511016      5.60452578
  H      5.35253156      6.44612272      5.41596233
  H      5.83470961      5.44757956      4.03153703
  H      6.68670513      7.67449336      3.52818780
  H      5.17316271      8.44234957      4.02627811
  H      5.21708306      7.48078816      2.55118455
  H      0.25977646      4.36684741      2.61066693
  H      1.65006160      3.41377352      2.01341651
  H      1.25565678      4.96963557      1.25147787
 Cl      5.59922667      2.96657725      4.17795362
 Cl      3.52692572      6.92925014      0.80566837
 Cl     -1.37494057      4.52977916      4.41341398
 Cl     11.23395734      7.16266666      1.32518389
 Cl      0.62619552     -2.59926871      6.38015585
