62
Energy =    -96.25237939 au
  N      2.27924035      1.63300612     14.36367501
  C      3.57614465      1.82139048     14.58210320
  N      4.25813364      0.86444211     13.96326606
  C      3.36690695      0.04300605     13.33096929
  C      2.12085213      0.53041112     13.58289205
  C      1.19456957      2.47842597     14.80082555
  C      1.19544599      3.78401878     14.01275334
  C      5.68903918      0.74191841     13.98785225
  H      4.07390353      2.59355102     15.16483865
  H      3.68062120     -0.80781095     12.75941419
  H      1.12455786      0.19239278     13.32713759
  H      0.26666876      1.91822153     14.62096315
  H      1.31367819      2.68132607     15.86757382
  H      0.38106670      4.41748754     14.35466511
  H      1.05093638      3.58021167     12.95382772
  H      2.13655188      4.31430804     14.14889759
  H      6.07820744      1.55307274     14.61477277
  H      6.09420682      0.83074591     12.98043015
  H      5.97789415     -0.22140253     14.40571394
  N      6.81265231      2.37052252      1.06632811
  C      6.63931077      2.62018129     -0.23373445
  N      5.33368147      2.72423482     -0.47982730
  C      4.65738225      2.43281332      0.67095356
  C      5.58026913      2.21594623      1.63878988
  C      8.08974220      2.24673599      1.71522005
  C      8.59730610      3.61337520      2.16948978
  C      4.78238456      3.01592213     -1.76803948
  H      7.40869553      2.92186960     -0.91226986
  H      3.58806072      2.40204149      0.70928004
  H      5.46341811      1.96422880      2.67259149
  H      7.97927253      1.57268747      2.56834093
  H      8.77483026      1.79325354      0.99622968
  H      9.63471085      3.54542274      2.48454069
  H      8.00004799      3.98513998      2.99908767
  H      8.51853490      4.32586287      1.35222662
  H      5.13207023      2.26544776     -2.47909449
  H      5.12637328      4.00437142     -2.08136524
  H      3.69551041      3.00002162     -1.71462500
  N      3.82187772      8.77817672     -1.02047537
  C      4.37159908      7.70180190     -0.47074667
  N      3.47591333      7.11516727      0.31659661
  C      2.32199121      7.84626459      0.26758869
  C      2.54060628      8.89018933     -0.57804335
  C      4.43854594      9.67019929     -1.97315623
  C      4.68631872      8.95023624     -3.29294549
  C      3.71975648      5.92553157      1.08358772
  H      5.36623957      7.30024907     -0.61866642
  H      1.44981148      7.57191928      0.82495629
  H      1.93486718      9.72858224     -0.90352857
  H      3.74242230     10.51016513     -2.11081936
  H      5.38260869     10.03019028     -1.55740020
  H      5.16061818      9.63087652     -3.99329453
  H      3.74261390      8.62145621     -3.72108968
  H      5.33273037      8.08631294     -3.14861286
  H      4.70551773      5.54178726      0.80185944
  H      2.95522060      5.17833779      0.87248902
  H      3.70882484      6.15150676      2.15019483
 Cl     -1.04008955      0.24741576     13.74044571
 Cl      7.07414769      0.36700987     -1.17246943
 Cl      5.92219433      3.40131367     15.91473614
 Cl      1.78499727     11.64604950     -1.93309517
 Cl      6.69526930      5.57199893     -0.35931842
