62
Energy =    -96.25592277 au
  N      3.04389557      3.92425930      2.68211862
  C      2.87896750      4.12272025      3.98840636
  N      3.99977641      4.62840462      4.49464915
  C      4.92483550      4.69217339      3.48971021
  C      4.32703796      4.25563903      2.35201586
  C      2.05959383      3.39561272      1.77649397
  C      1.52101433      4.48865597      0.85991545
  C      4.19195999      4.95374525      5.87692447
  H      1.95924369      4.02876197      4.52750008
  H      5.92904293      5.01968575      3.66364514
  H      4.67385216      4.22406550      1.33491879
  H      2.53227299      2.61396792      1.17641258
  H      1.26763091      2.94560065      2.37972678
  H      0.74912636      4.08037862      0.21208220
  H      2.33020173      4.87628746      0.24125699
  H      1.09628784      5.30328545      1.44357928
  H      5.22345482      5.25701379      6.04089159
  H      3.96180794      4.07369003      6.47978204
  H      3.51936710      5.77058211      6.15271402
  N      4.65803764      9.19135506      3.11948581
  C      4.40972467      9.14397332      4.42249772
  N      4.04571756     10.34755336      4.84466739
  C      4.11840307     11.20727609      3.79269796
  C      4.49436996     10.48072986      2.70754608
  C      4.94910385      8.07930530      2.24446584
  C      3.67723306      7.58771924      1.57094322
  C      3.74252624     10.67203507      6.20551972
  H      4.39276186      8.26501740      5.03866564
  H      3.90300619     12.25113580      3.89585491
  H      4.66646617     10.77588711      1.69272047
  H      5.67032089      8.40845483      1.49366917
  H      5.39812167      7.28153347      2.83528971
  H      3.92186752      6.79383232      0.86497118
  H      3.20111345      8.39605652      1.02166656
  H      2.97893085      7.20863645      2.31109372
  H      3.13933679      9.85753703      6.61525347
  H      3.19623160     11.61239441      6.24973628
  H      4.67605043     10.75673124      6.76447485
  N      4.21409945      8.67827185      9.48398364
  C      5.23694267      9.49652294      9.70184455
  N      6.14333613      9.30662074      8.74815012
  C      5.68433645      8.34145398      7.89964669
  C      4.46889190      7.94580027      8.36224399
  C      3.00049017      8.65284756     10.26166600
  C      1.83974398      9.20970374      9.44311271
  C      7.38397600     10.00455717      8.57382644
  H      5.28149110     10.16781968     10.55935933
  H      6.23181296      8.08758795      7.01415535
  H      3.75638358      7.26454868      7.94294644
  H      2.79358178      7.61949020     10.55281766
  H      3.17816105      9.26088035     11.15411540
  H      0.91281221      9.09153761      9.99450519
  H      1.75251693      8.68665617      8.49332657
  H      1.99652390     10.26677487      9.24762920
  H      8.21142168      9.41804940      8.97429729
  H      7.33917570     10.96266767      9.08786576
  H      7.53919978     10.14864776      7.49658786
 Cl      4.48298495      5.28340595     -0.83134206
 Cl      7.00545525      9.75754445      5.26365110
 Cl      3.03754617      1.71231424      4.93738447
 Cl      4.62442545     10.89994794     12.42785291
 Cl      2.14737978      7.74193012      6.10634611
