#B3LYP/6-31+G(d) OPT FREQ

62, Energy =    -96.26719077 au

0 1
  N      7.98386444      1.44755377      3.29591414
  C      7.07151437      1.02059653      2.42722039
  N      5.86601560      1.24332547      2.94292074
  C      6.01242050      1.81818041      4.17040997
  C      7.34804695      1.94676256      4.39147860
  C      9.41743464      1.42058392      3.12618458
  C      9.81966717      1.96651772      1.76293183
  C      4.60570328      0.93820650      2.32773149
  H      7.27587781      0.56675466      1.45570162
  H      5.15575324      2.10335151      4.75077461
  H      7.91148999      2.36379457      5.20710532
  H      9.84243312      2.01789303      3.93894618
  H      9.76459562      0.38697598      3.22505498
  H     10.90286681      1.95960503      1.67435525
  H      9.46834174      2.98947339      1.64890428
  H      9.39861933      1.35604742      0.96615669
  H      3.83023272      1.52939811      2.82036865
  H      4.37503171     -0.12219553      2.44357193
  H      4.64823127      1.16971743      1.26520218
  N      3.59426629      6.37376079      5.24272200
  C      3.86846774      7.60219193      5.67806612
  N      3.69045893      7.64622024      6.99115766
  C      3.29809819      6.41253837      7.41257224
  C      3.23461302      5.61199593      6.31216648
  C      3.60109241      5.92909988      3.87048658
  C      2.44571736      6.55539091      3.09633439
  C      3.90724340      8.79871832      7.81560262
  H      4.26704155      8.41066362      5.09757440
  H      3.13690177      6.21025071      8.45350125
  H      2.97678615      4.57650656      6.18158005
  H      4.55494852      6.20085843      3.41359242
  H      3.48680181      4.83816342      3.88246444
  H      2.46336370      6.19611428      2.07148057
  H      2.51919760      7.64214939      3.09098923
  H      1.49823378      6.26495781      3.54440556
  H      4.81945743      9.28455468      7.46318717
  H      4.02142812      8.47522130      8.85251396
  H      3.06644530      9.48892558      7.73333400
  N      7.38168924      5.86352371      7.50297789
  C      6.75525893      6.71747485      8.29964371
  N      7.60718727      7.65887969      8.68189663
  C      8.81049752      7.40573638      8.09650383
  C      8.66852259      6.27466969      7.35438690
  C      6.80414186      4.76755890      6.76977445
  C      6.72367662      5.15111865      5.29399708
  C      7.25206112      8.79100883      9.48553523
  H      5.74658492      6.64994041      8.66869891
  H      9.65722057      8.04648663      8.23255471
  H      9.36145783      5.70352742      6.76512438
  H      7.46283709      3.90232886      6.88426501
  H      5.81824860      4.55356565      7.18454368
  H      5.99092403      4.53343178      4.78638274
  H      7.69418212      5.00064737      4.82955200
  H      6.45252966      6.20097339      5.20097446
  H      7.01944519      9.63214025      8.82976115
  H      8.07640315      9.05750075     10.14596117
  H      6.36431010      8.53104727     10.06684703
 Cl      7.84263626     -0.25374851     -0.38274273
 Cl      4.46196550      7.14961260     10.63612315
 Cl      6.56863233      8.97504172      5.93998490
 Cl      9.81960722      3.28401124      6.18667203
 Cl      2.75530636      2.77951515      4.56233710

