#B3LYP/6-31+G(d) OPT FREQ

62, Energy =    -96.25866979 au

0 1
  N      7.02481308      8.91552490      6.05268633
  C      8.14529696      9.34919022      6.62084799
  N      8.16846324     10.67635406      6.56612519
  C      7.03388880     11.10747819      5.95039154
  C      6.31239857      9.99824906      5.62983704
  C      6.60113052      7.53882525      5.99221525
  C      5.59820940      7.24078436      7.10263085
  C      9.20125042     11.54258387      7.05726142
  H      8.91099554      8.69039644      7.01678392
  H      6.83296901     12.16255469      5.86729012
  H      5.38024165      9.89345310      5.11439439
  H      6.14718685      7.35790213      5.01525671
  H      7.48619183      6.91211238      6.11145128
  H      5.27073245      6.20733935      7.02837451
  H      4.72813775      7.88957747      7.01995017
  H      6.06078989      7.39195402      8.07572234
  H      8.75260616     12.53117293      7.23063662
  H      9.99613707     11.63929529      6.31620120
  H      9.61960346     11.13742781      7.97599806
  N     10.95214278      7.35485164      3.36038135
  C     10.77205100      7.54221268      2.05712889
  N      9.46893567      7.56505497      1.80853207
  C      8.79367357      7.39662642      2.98261624
  C      9.72813985      7.26256819      3.96188275
  C     12.22119114      7.29055152      4.04145773
  C     12.35080076      8.42349408      5.05405273
  C      8.90101433      7.73525256      0.50218215
  H     11.51755487      7.61683250      1.26637323
  H      7.71973619      7.38877299      3.01866586
  H      9.64609787      7.10266886      5.02480059
  H     12.28601900      6.33386780      4.56725049
  H     13.00438021      7.34104627      3.28105823
  H     13.35608329      8.43352265      5.46678729
  H     11.64385031      8.26729653      5.86691917
  H     12.15500238      9.38341948      4.58155027
  H      8.39074108      8.69744051      0.43975220
  H      8.18035483      6.94063404      0.30998215
  H      9.71892219      7.69719667     -0.22406019
  N      2.43950404      6.33316062     -0.19662751
  C      3.52829725      6.91243896      0.29668737
  N      4.10169117      7.63649450     -0.65773575
  C      3.35405672      7.51011405     -1.79450428
  C      2.30691150      6.69222743     -1.50175842
  C      1.50055841      5.50173398      0.51840408
  C      0.77050087      6.31431000      1.58100126
  C      5.29820530      8.41359988     -0.49109208
  H      3.92246571      6.84942862      1.30218549
  H      3.61957464      8.00298155     -2.70673465
  H      1.47738623      6.30512857     -2.08186150
  H      0.79254728      5.11640593     -0.22860872
  H      2.04320327      4.67421423      0.98229644
  H      0.07361339      5.67301693      2.11271396
  H      0.20801511      7.11765608      1.11166344
  H      1.47202181      6.74103483      2.29547396
  H      5.10917379      9.45498721     -0.75163290
  H      6.09527508      8.02713562     -1.12692069
  H      5.59764394      8.34882722      0.55901565
 Cl     -0.26844898      4.98981105     -2.25682547
 Cl     10.07688991      6.89106381      7.25349970
 Cl      5.37382353      7.66016334      2.76762110
 Cl      7.27420005     14.17879008      7.04445323
 Cl     12.04501449      7.56558663     -0.78790336

