62
Energy =    -96.16351336 au
  N      4.56470066      2.96935404      6.27343203
  C      4.74973504      1.79758197      7.11017132
  N      5.99978475      2.03326625      7.82597937
  C      6.61673743      3.11414701      7.18198010
  C      5.79428386      3.66778165      6.29641077
  C      3.89174348      2.79734988      4.99926692
  C      2.58516106      3.59307238      4.97529241
  C      6.79371222      0.85053561      8.17382454
  H      4.80552038      0.87067959      6.49206185
  H      7.62972627      3.37936811      7.44358008
  H      5.91486475      4.54674394      5.70128415
  H      4.54047065      3.12150760      4.17035631
  H      3.67288123      1.74125357      4.82598691
  H      2.13600565      3.55505999      3.97734410
  H      2.77592872      4.64015748      5.24800076
  H      1.85826663      3.16268642      5.67757674
  H      7.86219742      1.09417711      8.26174177
  H      6.66226281      0.04111558      7.40671357
  H      6.43965093      0.47256871      9.15141115
  N      7.31350181     -0.12778806      3.69842567
  C      8.00011666      0.20236318      2.60962631
  N      8.26949752      1.51032701      2.63325288
  C      7.71965457      2.02847453      3.76653429
  C      7.11676079      0.99645437      4.42667677
  C      6.84633688     -1.43874518      4.05321134
  C      7.62272934     -1.98094097      5.25009785
  C      9.04645403      2.22059880      1.65588038
  H      8.29229154     -0.47882902      1.82450570
  H      7.80056426      3.05852565      4.03977592
  H      6.58154145      0.98902946      5.35151075
  H      5.76656979     -1.34102835      4.28069988
  H      6.95699626     -2.09454960      3.18732073
  H      7.13110461     -2.85603383      5.64616296
  H      7.69558542     -1.22376731      6.02173360
  H      8.63543954     -2.23337113      4.96002020
  H     10.06859809      2.34423983      2.00898488
  H      8.61539351      3.20859176      1.47704672
  H      9.06197319      1.65629282      0.72276305
  N      3.42749652      0.19506755      8.48791597
  C      3.50458916      1.57152902      8.04262981
  N      3.47648727      2.32581155      9.28375446
  C      3.71024643      1.40581961     10.33265136
  C      3.61733295      0.15780796      9.85762551
  C      3.18460300     -0.91722220      7.62478004
  C      4.28202224     -1.98037847      7.69841524
  C      4.03902654      3.64941893      9.34055094
  H      2.63075431      1.83181705      7.41722813
  H      3.84388660      1.76569047     11.33124778
  H      3.66896648     -0.78878375     10.36314037
  H      2.21448529     -1.38279763      7.85629102
  H      3.13808057     -0.54440041      6.59680500
  H      4.15131171     -2.68476691      6.86690861
  H      4.25059929     -2.52740603      8.64888905
  H      5.25896447     -1.50172499      7.59187830
  H      5.13211007      3.64879989      9.47461276
  H      3.58122674      4.18271944     10.18621385
  H      3.80622567      4.17795946      8.42141172
 Cl      9.83472283      1.49827873      5.63754756
 Cl     -3.74639104     20.18755965     -6.02241143
 Cl     -3.08763898     20.10910185     -7.94467760
 Cl     -4.55203936     20.28987686     -3.68223764
 Cl      3.78668581     -0.62444939      4.05442497
