62
Energy =    -96.27359171 au
  N      8.80881357      1.74944887      5.19242289
  C      7.64271095      1.16358234      4.94519131
  N      6.82773021      2.04795485      4.37979338
  C      7.49308237      3.22925070      4.25716340
  C      8.73874922      3.04122670      4.77143763
  C      9.97174497      1.10998136      5.75438741
  C     11.05775434      0.95247608      4.69436009
  C      5.47783905      1.82733037      3.94919916
  H      7.42061847      0.13208784      5.20810622
  H      7.05167011      4.06159625      3.74587025
  H      9.55063826      3.72344525      4.90796342
  H     10.32662694      1.73679240      6.58040943
  H      9.66092532      0.13215435      6.12700804
  H     11.92026507      0.45424932      5.12874789
  H     11.37163840      1.92325660      4.31693450
  H     10.69086159      0.35375300      3.86220329
  H      5.26095461      0.76302586      3.96663073
  H      5.37087128      2.23484390      2.93906707
  H      4.78042227      2.35073185      4.60537666
  N      5.73465351      3.58468066      7.54721815
  C      6.89209225      3.07687841      7.96482844
  N      6.79897753      1.75331645      7.98262318
  C      5.55260327      1.40255503      7.55832155
  C      4.88204055      2.55523209      7.28373810
  C      5.38689069      4.98042640      7.41749589
  C      5.91534111      5.57438684      6.11145718
  C      7.82516397      0.85317894      8.42562368
  H      7.80796084      3.60657338      8.18923695
  H      5.26292664      0.37612917      7.46296524
  H      3.86913796      2.76130686      6.97883544
  H      4.29031808      5.03600104      7.42471737
  H      5.79799151      5.51406132      8.27330409
  H      5.72576774      6.64301988      6.09812788
  H      5.39582177      5.12958697      5.26552310
  H      6.98719251      5.40369577      6.00934173
  H      7.85961577     -0.02016395      7.76456206
  H      7.60618173      0.51015123      9.43884902
  H      8.77354653      1.38689503      8.42564242
  N      2.99737953      6.19555298      1.87338465
  C      1.98781928      6.97565165      2.24717281
  N      1.72546876      6.74942687      3.52701012
  C      2.58628044      5.79813449      3.99128834
  C      3.38543913      5.45111903      2.94648128
  C      3.57725453      6.10595075      0.55451207
  C      4.01766884      7.47512165      0.04620871
  C      0.69781602      7.42840974      4.26335605
  H      1.42743721      7.69488428      1.65695978
  H      2.53387842      5.41081039      4.99672773
  H      4.19767920      4.75361597      2.85173401
  H      4.42918268      5.42070573      0.62738007
  H      2.83781738      5.67774079     -0.12933733
  H      4.45734484      7.36898790     -0.94420131
  H      4.76584359      7.90218814      0.71259341
  H      3.17209946      8.15665317     -0.01467820
  H      0.17656777      8.09835422      3.57282277
  H      1.13736848      8.00164260      5.08027396
  H     -0.00119205      6.70610818      4.68620063
 Cl     10.01752730      3.58588796      8.03953609
 Cl      7.53241676     -1.70861740      6.29083945
 Cl      2.14203431      4.40544842      7.02807640
 Cl     -0.03291122      9.23561864      1.36101842
 Cl      5.99357753      3.92691698      1.45398286
