#B3LYP/6-31+G(d) OPT FREQ

62, Energy =    -96.26601559 au

0 1
  N      9.08667518      1.99822866      3.59120530
  C      9.70425428      2.46192970      4.67102967
  N     10.21783232      3.65523816      4.38829044
  C      9.91635820      3.95885886      3.09366782
  C      9.20218134      2.91587755      2.59031483
  C      8.37498050      0.74531399      3.52588983
  C      6.89565120      0.98621065      3.24951206
  C     10.96653866      4.50139695      5.27355124
  H      9.78787681      1.89152327      5.59392592
  H     10.21767284      4.89417696      2.66557080
  H      8.74376748      2.76897852      1.62782779
  H      8.80397215      0.14270584      2.72049185
  H      8.53375388      0.23990028      4.48367578
  H      6.36929364      0.03609102      3.23221843
  H      6.76581474      1.47606199      2.28591374
  H      6.46295134      1.60978545      4.02832581
  H     10.95586547      5.51810973      4.86691664
  H     11.99872787      4.15480604      5.34632818
  H     10.52161660      4.48654234      6.26655859
  N      3.73843118      8.78750633      7.16343804
  C      3.03883185      9.69474478      6.49018486
  N      3.85370312     10.66310892      6.08687865
  C      5.10310339     10.39073299      6.55677952
  C      5.03466489      9.21358264      7.22669867
  C      3.23102492      7.53853893      7.66479436
  C      3.52746070      6.41706564      6.67283334
  C      3.42170541     11.81970081      5.36482020
  H      2.00843280      9.60756155      6.21881651
  H      5.93444491     11.04102116      6.37675165
  H      5.79205200      8.65464852      7.73596439
  H      3.69146952      7.33900706      8.63686578
  H      2.15499665      7.65615699      7.80511613
  H      2.99061767      5.51344826      6.94741318
  H      4.59237440      6.19961873      6.64651377
  H      3.21970314      6.73310000      5.67814908
  H      2.99394596     11.50642740      4.41106459
  H      4.26777599     12.48065318      5.18984731
  H      2.66071544     12.32956773      5.95980794
  N      6.69645077      7.16926057      3.04548742
  C      5.55055368      6.57165312      2.73898886
  N      5.80235192      5.56669556      1.90594173
  C      7.14505317      5.52260730      1.67802005
  C      7.71054414      6.53014711      2.39659597
  C      6.83694490      8.28441304      3.94909835
  C      7.69148743      7.89388189      5.14861840
  C      4.84777734      4.66164204      1.33048801
  H      4.58636988      6.91241758      3.08868427
  H      7.56321436      4.76862366      1.03861128
  H      8.73860160      6.82595177      2.52672696
  H      7.32027758      9.10569161      3.41291421
  H      5.82915099      8.58863939      4.24585650
  H      7.74725123      8.72607799      5.84422385
  H      8.69973483      7.64292011      4.82126741
  H      7.26016276      7.03595335      5.65946731
  H      4.19843902      4.25758517      2.10587614
  H      5.40185109      3.85008612      0.84587667
  H      4.23421276      5.17728729      0.59082228
 Cl      7.08642874      2.57824562     -0.00135018
 Cl     10.75597406      7.31478744      3.46746666
 Cl      3.26935144      8.52406071      3.87534680
 Cl      9.69848580      0.09125041      6.73038650
 Cl      1.98438459     11.07445441      8.42467344

