#B3LYP/6-31+G(d) OPT FREQ

62, Energy =    -96.26302160 au

0 1
  N      5.25414804      7.48609458      6.28180663
  C      4.60941316      7.64379330      7.43310800
  N      5.30525370      7.05857218      8.40293212
  C      6.43265391      6.52385368      7.85821122
  C      6.39983187      6.79585028      6.52460526
  C      4.79985436      7.96436267      5.00107958
  C      5.18495418      9.42555525      4.79674439
  C      4.93534765      6.96315852      9.78503140
  H      3.62902402      8.07319440      7.51838629
  H      7.10960097      5.94451069      8.45070596
  H      7.06386039      6.52579391      5.72830878
  H      5.25963165      7.34043872      4.23221687
  H      3.71278768      7.85103268      4.98216335
  H      4.85240792      9.75364458      3.81602228
  H      6.26389721      9.54598653      4.85360660
  H      4.71599651     10.05501812      5.54860082
  H      3.87667931      7.18563530      9.89507170
  H      5.51687640      7.66513495     10.38432502
  H      5.15743918      5.93927329     10.12210855
  N      2.95435230      4.30939768      7.35666019
  C      2.41239892      4.54215235      6.16524743
  N      3.37224512      4.56357115      5.24577720
  C      4.56550471      4.35730409      5.87605698
  C      4.30816146      4.20052167      7.19945268
  C      2.25106232      4.28576267      8.61457616
  C      2.65091430      3.08309111      9.45736906
  C      3.20385823      4.85235107      3.85087266
  H      1.36455402      4.64460797      5.97172288
  H      5.48710347      4.36169933      5.32882445
  H      4.97001732      4.03862091      8.03643320
  H      2.48403398      5.20786600      9.15350457
  H      1.18110027      4.28356056      8.39353452
  H      2.05187783      3.05809476     10.36264437
  H      3.69831022      3.15329953      9.74021041
  H      2.49245895      2.15918874      8.90695962
  H      4.18749876      5.01662016      3.40982086
  H      2.59923227      5.75297134      3.74311087
  H      2.70785061      4.02278582      3.34069242
  N     10.07341471      4.29063321      0.83779187
  C      9.33223510      4.56953882      1.90948326
  N      9.89623215      4.01431678      2.98097618
  C     11.03311287      3.37263831      2.57234661
  C     11.14494427      3.54256272      1.22791014
  C      9.80721309      4.71647292     -0.51606817
  C     10.98845393      5.49214723     -1.08626085
  C      9.39261289      4.11079509      4.32229291
  H      8.40158444      5.11139959      1.94228926
  H     11.66768931      2.84637294      3.25463244
  H     11.90240036      3.21048510      0.51500449
  H      9.63563043      3.82758478     -1.13112895
  H      8.89666928      5.32388405     -0.49706455
  H     10.73713367      5.86030139     -2.07693110
  H     11.85331579      4.83089083     -1.16950092
  H     11.23986138      6.33776574     -0.44909908
  H      9.96405419      4.84402794      4.89062038
  H      9.46070606      3.14623520      4.81945349
  H      8.35266715      4.43559849      4.27515629
 Cl      1.77399946      7.14726759      6.39889279
 Cl     13.20587016      2.90526390     -1.07216236
 Cl     -9.47132496     33.44974498     -5.08799626
 Cl      6.03524966      3.93487744     10.00055377
 Cl      6.54987846      5.51852769      3.28230085

