#B3LYP/6-31+G(d) OPT FREQ

62, Energy =    -96.22512902 au

0 1
  N      9.85725892      3.04218117      1.54511252
  C      8.64770423      2.70789367      1.02380016
  N      8.57129929      1.35888899      0.93514407
  C      9.73420464      0.84244997      1.42818892
  C     10.52695530      1.87352834      1.80839768
  C     10.20809738      4.34814576      2.03660587
  C      9.71044807      4.53391109      3.46844179
  C      7.36527388      0.64553475      0.63695068
  H      7.86182346      3.38800865      0.78759877
  H      9.91495252     -0.21188963      1.47248348
  H     11.51115055      1.86869531      2.22986560
  H     11.29501600      4.46014985      1.98115640
  H      9.74206634      5.08993829      1.38373549
  H      9.84518854      5.56307314      3.78701506
  H     10.24962736      3.87931100      4.14910574
  H      8.65306897      4.28167207      3.51247405
  H      6.59317104      0.97501392      1.33901205
  H      7.53340124     -0.42247370      0.74894738
  H      7.03397467      0.85978851     -0.38060270
  N      4.56689664      0.10243812      7.13728245
  C      5.85765652      0.05866324      7.48331913
  N      6.09934928     -1.07960115      8.13641258
  C      4.91016675     -1.73748034      8.28204417
  C      3.95505355     -1.00469935      7.65680100
  C      3.91854877      1.21309135      6.48397792
  C      4.05524513      1.15090565      4.96787142
  C      7.33395696     -1.41951077      8.78409414
  H      6.59504262      0.73881811      7.11893916
  H      4.83566437     -2.66354772      8.81356599
  H      2.90440777     -1.17774548      7.54823951
  H      2.86372664      1.19236511      6.76957323
  H      4.36870022      2.12979028      6.87306099
  H      3.43769187      1.92286750      4.51812869
  H      3.73036604      0.18309787      4.59128047
  H      5.07961799      1.32739497      4.65391030
  H      8.15639518     -1.55185613      8.07095920
  H      7.20368114     -2.34365949      9.34073393
  H      7.59198694     -0.61504997      9.47418405
  N      8.93389659      1.15746591      6.03098889
  C      9.39226016      1.02985540      7.27257420
  N      8.96017450      2.05192421      8.00118636
  C      8.20451589      2.85653059      7.20081644
  C      8.18829832      2.29730799      5.95943947
  C      9.17570046      0.20243346      4.97505831
  C      7.87490599     -0.23736435      4.31793095
  C      9.15761715      2.23062037      9.40985316
  H      9.95005270      0.15758082      7.59995679
  H      7.71692598      3.73212419      7.57399567
  H      7.69442303      2.60712066      5.05393874
  H      9.83026452      0.66017022      4.22735323
  H      9.68180312     -0.65056110      5.44145575
  H      8.09288311     -0.98614849      3.56220557
  H      7.37658101      0.60620781      3.84536066
  H      7.21228150     -0.68400320      5.05543142
  H      8.17733392      2.17470130      9.89566860
  H      9.60404898      3.20412760      9.61231350
  H      9.80261708      1.43993802      9.78470674
 Cl      6.62273910      2.79675366      3.06926321
 Cl      5.91708983      1.72913260      9.35905929
 Cl      2.32751652     25.54072769     40.43235665
 Cl     10.28319107     -1.93605050      7.28744894
 Cl      4.34759627     11.60248790    -32.81180906

