62
Energy =    -96.23645345 au
  N      3.94074589      2.66632501      2.42049309
  C      3.36080551      2.17820933      3.51526531
  N      3.86542664      2.78639451      4.58403542
  C      4.83794345      3.64574277      4.16436582
  C      4.88795207      3.57373603      2.80984447
  C      3.71491628      2.20210283      1.07277431
  C      3.78880567      3.33610249      0.06200036
  C      3.59689436      2.46533980      5.95493828
  H      2.57158653      1.45551797      3.52766033
  H      5.42134290      4.20006745      4.87932429
  H      5.53442695      4.07547827      2.11116090
  H      4.46984858      1.44403525      0.83999694
  H      2.73493493      1.71800377      1.04832093
  H      3.55610738      2.95451479     -0.92833781
  H      4.78606266      3.76672521      0.03641265
  H      3.07686838      4.11895448      0.31142642
  H      2.55224153      2.65509001      6.20382101
  H      4.24560696      3.07650213      6.58023867
  H      3.81707447      1.40766191      6.11192280
  N      7.82693910      0.37546209      3.31160182
  C      7.27121364      1.21411736      4.19914090
  N      7.65518458      0.86287426      5.43247926
  C      8.44690187     -0.24336081      5.32508548
  C      8.55571499     -0.54421308      4.00619914
  C      7.55122791      0.35353031      1.89866620
  C      8.26276581      1.47248633      1.14906753
  C      7.18870683      1.43930510      6.65954147
  H      6.64526201      2.04854220      3.96191900
  H      8.86684105     -0.72962260      6.18154769
  H      9.08011920     -1.34079889      3.52011096
  H      7.87223876     -0.61955311      1.51884649
  H      6.46667480      0.43142261      1.78314149
  H      8.15474446      1.31740112      0.07915879
  H      9.32401663      1.47920577      1.38986062
  H      7.84124014      2.44633484      1.38234976
  H      7.92397680      1.27067232      7.44414839
  H      6.24479345      0.97337508      6.94934394
  H      7.02221807      2.51514216      6.54385452
  N      6.84939157      7.80541401      2.19909160
  C      7.80093695      6.86607360      2.31546823
  N      7.63260099      6.22147231      3.47460377
  C      6.54862793      6.74617847      4.10665645
  C      6.05815928      7.73363457      3.31788097
  C      6.63973207      8.71062441      1.09403313
  C      7.18281481      8.15347753     -0.21335343
  C      8.37165438      5.07299396      3.90908605
  H      8.57824059      6.66893127      1.61076512
  H      6.23453876      6.37283384      5.06360232
  H      5.21745058      8.38073781      3.45579373
  H      5.56170079      8.87268763      1.00966551
  H      7.11086884      9.67560782      1.32488818
  H      6.77303300      8.71008675     -1.05102802
  H      6.90127752      7.10758754     -0.31141374
  H      8.26599215      8.22496326     -0.25072422
  H      8.25317397      4.28147822      3.16765486
  H      7.97076536      4.75288136      4.87212430
  H      9.43056422      5.31340577      4.00809511
 Cl      6.50225471      4.71266530      6.76413013
 Cl    -39.33243780     25.61982024     33.50245793
 Cl      4.80707628     -0.04607731      3.85205456
 Cl     20.63357270     32.92741393     -1.61758574
 Cl      7.04077900      4.76948410      0.63409859
