#B3LYP/6-31+G(d) OPT FREQ

62, Energy =    -96.18487523 au

0 1
  N      4.22495854      5.45455435      8.86320154
  C      3.60906667      5.53361833      7.68389135
  N      3.74463883      4.37260524      7.04979483
  C      4.54313201      3.56190007      7.80509057
  C      4.84198731      4.23933833      8.94242945
  C      4.20400927      6.51260069      9.83757342
  C      2.83509780      6.58483875     10.51004359
  C      3.13175243      4.07914841      5.78930954
  H      2.92642078      6.30023215      7.38349146
  H      4.83194358      2.58102191      7.48713378
  H      5.43816379      3.95676318      9.78578091
  H      4.99538433      6.33155910     10.56930069
  H      4.42020261      7.44112664      9.30406539
  H      2.72775625      7.52038840     11.05196229
  H      2.70153460      5.75710584     11.20392306
  H      2.05208964      6.51851549      9.75645768
  H      2.08289047      4.37625144      5.85032167
  H      3.21044671      3.01462354      5.57940108
  H      3.61992611      4.65127483      4.99888355
  N      2.93464254     10.88387550      5.73380244
  C      2.84861831      9.53008529      6.16222841
  N      1.91778239      8.93268133      5.27442998
  C      1.33180607      9.92777319      4.53015914
  C      1.94121481     11.09985774      4.80814944
  C      4.09273385     11.71580401      5.97081591
  C      4.38331545     12.65686301      4.80887414
  C      1.85528445      7.52046506      5.03558090
  H      3.80609586      8.99750522      6.21853281
  H      0.52211969      9.71481300      3.86206350
  H      1.73134133     12.07585925      4.42413131
  H      3.98127018     12.31311095      6.88609700
  H      4.94682026     11.04756354      6.11355147
  H      5.32565334     13.16147642      5.00210496
  H      3.61162830     13.41632894      4.72087028
  H      4.45629558     12.10851124      3.86987017
  H      2.87003702      7.12284742      4.95869108
  H      1.32249202      7.33621591      4.10310860
  H      1.33951085      6.99586633      5.84762104
  N      0.92219299     10.06514508      7.69347659
  C      2.22151638      9.48149405      7.71464071
  N      2.97064662     10.32946365      8.56798298
  C      2.24733494     11.46856780      8.80799335
  C      1.00525786     11.30390056      8.31439106
  C     -0.29977623      9.31563700      7.59544593
  C     -0.77337509      8.77053761      8.94515320
  C      4.34722507     10.16454473      8.92811475
  H      2.22942411      8.42274642      7.99008002
  H      2.71829414     12.32047294      9.26083068
  H      0.16265758     11.96428932      8.33254851
  H     -1.06013164      9.98010944      7.17045096
  H     -0.14633060      8.47688521      6.91690564
  H     -1.78943615      8.39610685      8.85306503
  H     -0.74497926      9.54829117      9.70666188
  H     -0.13629500      7.94528223      9.24959782
  H      4.43416799      9.71918206      9.92651098
  H      4.82023817     11.15004171      8.94638674
  H      4.85819471      9.52515445      8.21004540
 Cl      5.25054686      7.04583059      6.46464946
 Cl      3.77421169    -20.79104359     -3.05187347
 Cl      4.71891923     13.59624053      8.81529994
 Cl      4.56049805    -21.35955995     -0.77538420
 Cl      0.64344486      5.65627095      7.73287699

