62
Energy =    -95.82462791 au
  N      1.08430326      0.34252376      8.91868821
  C      0.18969882      0.81421460      8.04214672
  N     -0.81876017     -0.05984157      7.96506512
  C     -0.57769488     -1.09312678      8.82732948
  C      0.62450978     -0.83898744      9.43179537
  C      2.31144626      1.03190773      9.33377392
  C      2.28556191      1.35939448     10.81500871
  C     -2.06658252      0.15153959      7.24033102
  H      0.23158870      1.76401295      7.54041004
  H     -1.27532814     -1.89906533      8.96277750
  H      1.15471740     -1.38409089     10.19053506
  H      3.15115916      0.38617771      9.07840793
  H      2.37598170      1.93440201      8.73039629
  H      3.20816543      1.87511628     11.07774815
  H      2.20635338      0.45904468     11.42064005
  H      1.44065578      1.99847330     11.05182492
  H     -2.84596353      0.38962775      7.95910982
  H     -2.30900245     -0.75220011      6.68787142
  H     -1.94101430      0.99121040      6.56623922
  N      2.87371573      6.01306946      4.20801718
  C      1.67463927      5.87877088      4.78708011
  N      1.63390033      6.68517263      5.85242599
  C      2.81609606      7.36649004      5.93908894
  C      3.60008197      6.94337677      4.89908744
  C      3.30074643      5.34303044      2.97427537
  C      3.59180625      6.34670952      1.87432694
  C      0.45322142      6.95102449      6.66624554
  H      0.85594810      5.28506696      4.42256431
  H      2.99671270      8.10314649      6.70020008
  H      4.58265812      7.25185841      4.59359277
  H      4.17805705      4.74335385      3.21512980
  H      2.49231473      4.67200319      2.69340900
  H      3.89681883      5.80827855      0.97808051
  H      4.39048969      7.02863431      2.15853886
  H      2.70922193      6.93804243      1.65130151
  H      0.06538577      7.93063455      6.40032952
  H      0.73459979      6.91501769      7.71517556
  H     -0.29921242      6.20263026      6.44496836
  N      0.62432484      3.72128367      7.69862025
  C      0.46366781      3.67481606      9.02646226
  N     -0.84041120      3.53268246      9.28352504
  C     -1.52086955      3.45907757      8.09995021
  C     -0.59559300      3.57675092      7.09731461
  C      1.91253235      3.81296717      7.00181188
  C      2.16444229      2.58619943      6.14533283
  C     -1.42050196      3.28749190     10.59895593
  H      1.24785817      3.67563922      9.76175551
  H     -2.58359785      3.30541654      8.06030027
  H     -0.71227106      3.53842814      6.03014011
  H      1.89704252      4.72468225      6.40529494
  H      2.67203733      3.91959156      7.77285581
  H      3.13072188      2.69211493      5.65412626
  H      1.39787967      2.46898253      5.38222404
  H      2.17143205      1.68785156      6.75467041
  H     -1.69385168      2.23783991     10.66433411
  H     -2.29144226      3.92532407     10.72288170
  H     -0.67502998      3.50485390     11.35542106
 Cl      9.79321816      2.08638256      5.93363514
 Cl      3.83541051      5.18964943      6.17755046
 Cl      8.12402341      1.86225315      0.77984472
 Cl      0.69631848      5.51954925      2.44277393
 Cl      3.51889338      8.52047587      0.70000087
