#B3LYP/6-31+G(d) OPT FREQ

62, Energy =    -96.27985458 au

0 1
  N      1.85868509      4.34740574      8.18541351
  C      1.30093900      3.91082774      7.05367772
  N      1.16181806      2.58558207      7.12109608
  C      1.54918420      2.18608231      8.36832950
  C      1.98191660      3.28552401      9.03369783
  C      2.14296629      5.71606575      8.53382644
  C      1.00479485      6.29917670      9.36518602
  C      0.58273506      1.76937651      6.09397074
  H      1.16145306      4.49556540      6.16914299
  H      1.48815929      1.16419041      8.67940645
  H      2.40112222      3.39672627     10.01120875
  H      3.08971760      5.72713614      9.08210264
  H      2.25403911      6.28206834      7.60673281
  H      1.14532266      7.36836049      9.49636152
  H      0.96294692      5.82626040     10.34310672
  H      0.06348603      6.11811084      8.85027559
  H     -0.26828250      2.30227701      5.67040829
  H      0.24161078      0.83102368      6.52539017
  H      1.31579085      1.55639880      5.30943619
  N      5.72852170      3.62413593      6.01903608
  C      5.60149926      2.64412227      5.12698732
  N      6.60527163      1.78752907      5.28312727
  C      7.40135692      2.23419453      6.29174064
  C      6.84981111      3.38862325      6.75557712
  C      4.83517002      4.73840035      6.20111994
  C      5.31651424      5.95944095      5.42447062
  C      6.77612165      0.56686706      4.55097317
  H      4.76572524      2.47469369      4.46688414
  H      8.24200372      1.66391372      6.63208345
  H      7.12059764      4.02264129      7.57479581
  H      3.84404443      4.43434736      5.85928028
  H      4.80632287      4.95279698      7.27645310
  H      4.62709473      6.78443994      5.57783953
  H      5.36958194      5.74154326      4.35892872
  H      6.30063949      6.26468415      5.77092151
  H      7.17711795     -0.18512360      5.23456990
  H      7.47429863      0.70816358      3.72447195
  H      5.80662700      0.25997305      4.16144363
  N      4.75554826     -0.47000972      7.33562814
  C      5.55749400     -0.49000966      8.39783114
  N      5.58443435      0.72688050      8.93532993
  C      4.79005487      1.54736572      8.18866139
  C      4.26597569      0.79590349      7.18776204
  C      4.48326131     -1.56501625      6.44076004
  C      3.45405545     -2.52157184      7.03390300
  C      6.42055642      1.16933045     10.01313059
  H      6.05492048     -1.35288010      8.78661728
  H      4.68025521      2.58399933      8.45249379
  H      3.63992773      1.03917810      6.34978987
  H      4.10202857     -1.13126579      5.51252895
  H      5.42515784     -2.08313161      6.24547837
  H      3.26471483     -3.33225964      6.33636495
  H      2.51779145     -1.99911296      7.21659997
  H      3.81084764     -2.94398187      7.97141993
  H      6.15728829      0.66463120     10.94361965
  H      6.28634136      2.24499964     10.12579301
  H      7.45992221      0.94888041      9.76639816
 Cl      3.24503870      0.83136234      4.05729097
 Cl     -1.14730741      4.54189718      7.24869163
 Cl      8.01720657     -0.77220421      7.34795109
 Cl      5.23830725      4.53742808      9.50748270
 Cl     32.68420585     22.65861425    -10.62869118

