#B3LYP/6-31+G(d) OPT FREQ

62, Energy =    -96.26795557 au

0 1
  N      4.51174622      5.54435468      9.42061216
  C      5.07193588      5.48923465      8.21983870
  N      4.77234470      4.32638558      7.65596240
  C      3.97584565      3.62265699      8.50467338
  C      3.81059766      4.38884040      9.61469355
  C      4.56502063      6.68255895     10.30050710
  C      3.38923923      7.61337649     10.02270195
  C      5.13534502      3.90771652      6.33391161
  H      5.73358203      6.23469122      7.82620142
  H      3.59279002      2.65684093      8.22190972
  H      3.25888121      4.20452971     10.51328975
  H      4.54666129      6.32355630     11.33355263
  H      5.52311629      7.17853739     10.11450525
  H      3.53648548      8.56913180     10.51732398
  H      2.45619965      7.17314263     10.37106596
  H      3.30666384      7.77632939      8.95105534
  H      4.66106327      2.94359207      6.14259729
  H      6.21864573      3.82064037      6.24765576
  H      4.77722251      4.65129724      5.62144386
  N      6.70487954      8.67936740      6.95254442
  C      7.97735306      8.76343588      7.31685922
  N      8.69222357      7.90730910      6.60331309
  C      7.84934758      7.24671722      5.76217762
  C      6.59939791      7.73442429      5.97702326
  C      5.62891515      9.49502774      7.44999917
  C      5.63757134     10.84851231      6.74480237
  C     10.11133107      7.76724278      6.71709599
  H      8.37203197      9.41074394      8.07076143
  H      8.19440549      6.49129821      5.08609366
  H      5.64780242      7.47032197      5.55865152
  H      4.69434371      8.95900356      7.26618818
  H      5.77114899      9.61960115      8.52605433
  H      4.96948319     11.54229571      7.24849257
  H      5.31410385     10.73679530      5.71275250
  H      6.64717225     11.25521870      6.74213687
  H     10.55107323      8.75813944      6.57305031
  H     10.47638418      7.07662311      5.95968830
  H     10.35758528      7.39376620      7.71234661
  N      0.23064410      2.55978849      7.96119354
  C      0.56903015      2.54136781      6.67945037
  N      1.11763328      3.70514637      6.35961201
  C      1.12551057      4.49863367      7.46510421
  C      0.56712120      3.77781501      8.47181643
  C     -0.37654418      1.45891224      8.65738757
  C      0.69035465      0.47584688      9.12778098
  C      1.67308557      4.05372392      5.08508521
  H      0.41183306      1.71932792      6.01340248
  H      1.54905888      5.48439179      7.44187689
  H      0.37642307      4.03717185      9.49286208
  H     -0.94788072      1.85770393      9.50001003
  H     -1.07387689      0.99533876      7.95346972
  H      0.23312977     -0.45480067      9.45336659
  H      1.26502836      0.89591785      9.95200451
  H      1.37870467      0.26961658      8.31128310
  H      2.37594412      3.27502312      4.78685483
  H      2.19064977      5.00722828      5.18328645
  H      0.88221444      4.13431853      4.33838252
 Cl      3.32229435      6.94556983      6.50999749
 Cl      3.11791707      1.10160140      6.57683308
 Cl      9.32631786     10.94930101      6.10002412
 Cl     -2.24025288      2.33618140      6.13129564
 Cl      7.74091360      6.78530809      9.36004150

