#B3LYP/6-31+G(d) OPT FREQ

62, Energy =    -96.27975345 au

0 1
  N      5.98147746      7.61325069      5.39078041
  C      5.33150584      6.83736837      4.53068990
  N      4.26568567      7.49269681      4.08412151
  C      4.22912237      8.71559896      4.68288440
  C      5.31132110      8.79074234      5.50658243
  C      7.16515707      7.24221370      6.12328529
  C      6.79410786      6.70196108      7.50046843
  C      3.31432415      7.01722635      3.12139342
  H      5.66691472      5.85084147      4.20886484
  H      3.41280641      9.39025748      4.51384273
  H      5.69312746      9.59177295      6.10580752
  H      7.68536214      6.47477986      5.54911041
  H      7.78666964      8.14017124      6.21118549
  H      7.69815714      6.43325913      8.03921617
  H      6.16971450      5.81576751      7.40408314
  H      6.25742249      7.45362060      8.07539340
  H      3.58437478      7.36561824      2.12174511
  H      2.33194793      7.41795767      3.38202130
  H      3.30300214      5.93064490      3.12963042
  N      1.42281537     10.81432010      0.69275687
  C      1.59066072      9.57772912      1.15223958
  N      0.68401750      8.78181586      0.59925076
  C     -0.07366112      9.52717941     -0.25398564
  C      0.38712188     10.80359214     -0.19677534
  C      2.18781501     11.94850188      1.14279137
  C      1.70940868     12.39173085      2.52293202
  C      0.53325188      7.39235972      0.91249763
  H      2.30063708      9.28256122      1.89150546
  H     -0.86826030      9.10298017     -0.83357089
  H      0.06788106     11.68560728     -0.71604918
  H      3.23541921     11.63950044      1.18338451
  H      2.08432167     12.75225919      0.40876417
  H      2.41994918     13.08477094      2.96417222
  H      1.61413997     11.51956412      3.16704431
  H      0.73723007     12.87321793      2.45978211
  H      1.44688103      6.86089580      0.64608222
  H     -0.31131932      6.97834528      0.36738996
  H      0.36772505      7.30645054      1.98945337
  N      7.16722171      9.23934524      2.44679940
  C      6.44053526      8.52763173      1.58833084
  N      6.83537800      7.25985388      1.63876233
  C      7.84070498      7.15421408      2.54973825
  C      8.04959724      8.39986429      3.05842127
  C      7.08634880     10.65500510      2.71904756
  C      5.71629496     11.22395130      2.39442488
  C      6.27447611      6.17859627      0.88235085
  H      5.62787008      8.87177965      0.96389016
  H      8.26501867      6.20172326      2.79543488
  H      8.69744012      8.76105811      3.83326338
  H      7.33203911     10.78281533      3.78387175
  H      7.85674284     11.16642318      2.13107202
  H      5.69300803     12.27400045      2.67190552
  H      4.94936540     10.69945308      2.95882660
  H      5.49711872     11.13694085      1.33202826
  H      6.13862951      5.32543433      1.55574738
  H      6.95584744      5.88504768      0.08231688
  H      5.33095707      6.50090050      0.44768772
 Cl      6.70623398      4.19118806      3.47591868
 Cl      3.77294047      8.78656190     -0.20358936
 Cl      8.26565170     10.35473596      5.75946473
 Cl      0.75156769      9.18591639      3.80064647
 Cl     -2.85361441    -28.37171744     29.83505132

