62
Energy =    -96.27897420 au
  N      2.80765364      1.96702358      7.61849455
  C      3.66223439      1.17759012      6.98411469
  N      4.87448351      1.34937882      7.49659298
  C      4.79667839      2.28209608      8.48176165
  C      3.49673239      2.67462278      8.55641325
  C      1.41641997      2.09904909      7.26658060
  C      0.50615407      1.86994539      8.46569949
  C      6.09385003      0.72851870      7.06523922
  H      3.35410231      0.48244820      6.21716611
  H      5.67505779      2.56541710      9.03223453
  H      3.03204194      3.41009780      9.17923597
  H      1.26709782      3.09771594      6.84555489
  H      1.21707472      1.35517071      6.49037797
  H     -0.53071109      1.95988527      8.15349348
  H      0.69476370      2.59551055      9.25477538
  H      0.66005074      0.86922842      8.86307650
  H      6.86952896      0.96089648      7.80182942
  H      6.39742487      1.14194003      6.10256951
  H      5.95674829     -0.34796212      6.97375557
  N      7.11953903      4.72281790      6.73120609
  C      6.50289321      5.27167707      5.69051191
  N      6.84927746      4.62348002      4.58484274
  C      7.68507162      3.60560195      4.93119936
  C      7.85908558      3.66985107      6.27865708
  C      7.04773463      5.13399741      8.11384428
  C      5.68340994      5.71520821      8.45704886
  C      6.30736577      4.85586381      3.27775064
  H      5.83931483      6.11014368      5.72381005
  H      8.09697625      2.96017710      4.17845215
  H      8.39402926      3.04557290      6.96818651
  H      7.26775011      4.24172407      8.71355238
  H      7.83969047      5.86866577      8.30363575
  H      5.52817521      5.67985342      9.53110319
  H      4.90798881      5.12858470      7.97110871
  H      5.59448832      6.75015294      8.12983305
  H      5.24736656      4.59472632      3.29211758
  H      6.84291831      4.22933060      2.56295069
  H      6.41173353      5.90550960      3.00385528
  N      6.83347999     -0.26473319      3.42269636
  C      6.08550264      0.79962526      3.13208200
  N      4.84205807      0.58070687      3.54641242
  C      4.78691574     -0.65714100      4.10844187
  C      6.03667125     -1.18880902      4.03346408
  C      8.23411776     -0.40756151      3.10840349
  C      8.45241071     -1.50181007      2.06963380
  C      3.73090238      1.48555375      3.46739903
  H      6.48331133      1.66865316      2.62510185
  H      3.86142763     -1.04133930      4.50970979
  H      6.40856858     -2.13342890      4.37145737
  H      8.57074634      0.55648054      2.71045304
  H      8.78033246     -0.63728226      4.02760135
  H      9.51236345     -1.58116457      1.84682007
  H      7.92742955     -1.24890638      1.15211296
  H      8.09578689     -2.46716737      2.42521802
  H      2.82818668      0.94602783      3.75439008
  H      3.63471375      1.87740546      2.45664114
  H      3.86895068      2.32381326      4.16003846
 Cl      8.04332680      2.18922348      9.35133378
 Cl     11.94716206     37.96684426      1.67888541
 Cl      8.29387339      2.61303283      1.72305317
 Cl      4.01607229      4.03472857      5.69332589
 Cl      1.77274435     -0.79508541      5.25556835
