#B3LYP/6-31+G(d) OPT FREQ

62, Energy =    -96.26043929 au

0 1
  N      5.18402882      8.94659990      6.25129367
  C      6.34666189      8.73887433      6.86535461
  N      6.11713003      8.25197999      8.08103834
  C      4.76756335      8.20325290      8.27227741
  C      4.18306950      8.63800939      7.12829646
  C      5.04795655      9.47115448      4.91871946
  C      5.06013731      8.34980119      3.88249831
  C      7.14829185      7.96820908      9.03213094
  H      7.30850552      8.79649091      6.40286740
  H      4.33289211      7.86422669      9.19030988
  H      3.15035926      8.75818419      6.87407711
  H      4.11802793     10.04345185      4.86594585
  H      5.88600404     10.15517450      4.76288525
  H      5.24240213      8.75461791      2.89106281
  H      4.11380113      7.81494541      3.87287975
  H      5.84594502      7.64045473      4.12837927
  H      6.70556687      7.65636565      9.97478369
  H      7.74027762      8.87441805      9.17790514
  H      7.78916898      7.17449617      8.64539685
  N      3.97213651      4.06990477      8.85689453
  C      4.20694433      4.63840035      7.67581905
  N      3.05239943      5.01408306      7.14142231
  C      2.05244254      4.66860692      8.00141407
  C      2.63172084      4.07632711      9.08201661
  C      4.95181687      3.53847069      9.77488495
  C      6.02336325      4.57390370     10.08764796
  C      2.91075856      5.67333383      5.87777554
  H      5.16566410      4.82473684      7.21180306
  H      1.02295181      4.85805494      7.77936343
  H      2.23852425      3.69008752     10.01120447
  H      4.40537916      3.25519475     10.68524463
  H      5.40735904      2.64896613      9.33019454
  H      6.75170756      4.14505816     10.76969805
  H      5.57020317      5.43650288     10.56935912
  H      6.53408353      4.89460824      9.18306392
  H      2.21813501      6.50817674      5.97280855
  H      2.51852627      4.98632353      5.11300986
  H      3.89060067      6.03002996      5.56906686
  N      4.99209623      1.26101744      2.25091015
  C      4.48649958      2.40071635      2.71574900
  N      5.45324860      3.30680719      2.77883059
  C      6.61107170      2.72649997      2.35003426
  C      6.31983144      1.43929548      2.01608666
  C      4.27294458      0.03660669      1.99018631
  C      3.11131571      0.28265054      1.03594843
  C      5.26710061      4.66751322      3.19334050
  H      3.45874718      2.62112828      2.97893664
  H      7.53683592      3.26256886      2.32100455
  H      6.90930242      0.63087257      1.60840721
  H      4.99623843     -0.66386296      1.55096794
  H      3.90232155     -0.36519624      2.93766244
  H      2.58794022     -0.65201993      0.85502194
  H      3.48490006      0.65693045      0.08603600
  H      2.41040111      1.00462498      1.44917745
  H      4.19661372      4.84456795      3.28868863
  H      5.68700591      5.34226324      2.44784168
  H      5.75894621      4.85956361      4.15167556
 Cl      6.93198395     11.13821849      7.49087843
 Cl      6.67780135      5.92017021      6.05839786
 Cl      1.76398419      3.95960340      3.29612454
 Cl      6.97245550     -1.41652562      0.62671146
 Cl      2.65497562      3.09797172     12.15282783

