#B3LYP/6-31+G(d) OPT FREQ

62, Energy =    -96.26180187 au

0 1
  N      8.55034110     10.17521713      4.31455674
  C      8.43156039      9.05133664      3.60858170
  N      7.34526810      8.39326213      4.02287188
  C      6.76143470      9.12746357      5.01828688
  C      7.51649250     10.24531539      5.19600542
  C      9.59375207     11.16068309      4.19056865
  C      9.21162799     12.24848018      3.19210847
  C      6.91615415      7.12593635      3.50335839
  H      9.04897755      8.69877965      2.79270213
  H      5.87475652      8.80351275      5.52289508
  H      7.47367782     11.03587803      5.92502319
  H      9.73387675     11.59455448      5.19122349
  H     10.50382902     10.65439257      3.86531876
  H     10.01963938     12.97062331      3.12233927
  H      8.31985366     12.77089535      3.53039679
  H      9.03200113     11.82458753      2.20506031
  H      5.85540853      7.15787052      3.25525490
  H      7.08368672      6.33260428      4.23419091
  H      7.50849288      6.91545971      2.60812888
  N      9.61173949      8.32717244      6.91083280
  C      9.47298832      7.25414332      6.12739782
  N     10.45548735      7.24883640      5.22009498
  C     11.29058584      8.29636263      5.50310383
  C     10.76485274      8.96779016      6.55693780
  C      8.77614356      8.69603810      8.02587654
  C      9.34548844      8.14403251      9.32857617
  C     10.67220379      6.22605037      4.23631200
  H      8.60696588      6.62963026      6.09765594
  H     12.18117272      8.47271831      4.93627775
  H     11.07654160      9.86168824      7.05591368
  H      8.72364412      9.79028307      8.04550070
  H      7.78053421      8.28296584      7.85051569
  H      8.64614209      8.31653439     10.14264085
  H     10.28683774      8.63329319      9.56430581
  H      9.52288921      7.07582340      9.22083001
  H     10.31426345      5.28076459      4.64175936
  H     11.73775684      6.14146932      4.03227179
  H     10.15194629      6.45661090      3.30165551
  N      6.01801978      8.66493952      0.56459679
  C      4.87493123      8.87868161      1.22519558
  N      5.03322773      9.95358694      2.01685650
  C      6.25035476     10.51620543      1.71915252
  C      6.86472046      9.70804437      0.82378014
  C      6.28244049      7.60330814     -0.37334138
  C      6.04651542      8.07526103     -1.80392266
  C      3.96696614     10.57055985      2.74958671
  H      4.09681687      8.15253411      1.33830602
  H      6.56739131     11.43105396      2.17385734
  H      7.84050051      9.75140244      0.38685793
  H      7.31907112      7.28714314     -0.22364110
  H      5.61380770      6.77278213     -0.13793846
  H      6.12764761      7.23802752     -2.49171823
  H      6.77712393      8.83077917     -2.08173545
  H      5.05204028      8.50861416     -1.87934309
  H      3.17946065     10.84216429      2.03955748
  H      4.33751381     11.45723190      3.25884501
  H      3.55634253      9.87362798      3.48184018
 Cl      9.31359027      7.31113410      1.15837504
 Cl      3.29506160      9.82692777     -0.37640695
 Cl     10.14838618      5.24637650      7.47417707
 Cl    -23.97335587     -6.68233497     13.42761492
 Cl      9.09975323     12.01034816      7.30133496

