#B3LYP/6-31+G(d) OPT FREQ

62, Energy =    -96.26044341 au

0 1
  N      5.87053571      6.76385685      6.60127234
  C      6.30760358      6.70119746      7.86064509
  N      5.90896653      5.55002693      8.40132929
  C      5.11838637      4.90601116      7.48841111
  C      5.09921085      5.65962832      6.36221282
  C      6.08342878      7.86295392      5.69595767
  C      7.20699288      7.57330489      4.70756152
  C      6.11857266      5.12029761      9.75378296
  H      7.01624640      7.37601234      8.29322112
  H      4.64913596      3.97356957      7.72313113
  H      4.61911990      5.48994493      5.41900341
  H      5.14766206      8.03734145      5.15737876
  H      6.30378458      8.74389534      6.30215306
  H      7.33501116      8.42444937      4.04365436
  H      6.96026805      6.70077558      4.10739642
  H      8.15142385      7.38971552      5.21504576
  H      6.18382128      4.02830121      9.78230999
  H      5.28855769      5.45874160     10.37689321
  H      7.03739005      5.55835984     10.13929853
  N      1.89853463      2.78823148      0.74110460
  C      1.23146347      2.43987022     -0.35440305
  N      2.04145884      2.54810224     -1.40120535
  C      3.25944057      2.97989050     -0.95913500
  C      3.16878117      3.12571495      0.39001804
  C      1.40035358      2.77718156      2.09644674
  C      1.17734179      1.34670052      2.57255816
  C      1.66251246      2.25921111     -2.75545326
  H      0.20573291      2.09394405     -0.45908700
  H      4.08382046      3.14740842     -1.62115585
  H      3.87092194      3.46412263      1.13768833
  H      2.15246905      3.27776195      2.71739289
  H      0.46177166      3.33539215      2.13041163
  H      0.80455022      1.35906016      3.59224410
  H      2.11456001      0.79551671      2.55652919
  H      0.45440717      0.83862149      1.93736512
  H      2.34161064      1.52462930     -3.18776510
  H      1.68707314      3.16799971     -3.35754630
  H      0.64072675      1.85847290     -2.73235540
  N      8.33797680      3.93147401      6.60626645
  C      7.35821469      3.04433234      6.75217368
  N      6.74550595      2.89264078      5.58325216
  C      7.34621260      3.70783014      4.67030708
  C      8.35190027      4.35905210      5.31440588
  C      9.23849336      4.39253954      7.63599742
  C      9.84047098      3.22324033      8.40358936
  C      5.62107772      2.04040862      5.32731031
  H      7.08220397      2.53643145      7.67575546
  H      6.98465614      3.78024011      3.66518863
  H      9.08045722      5.08677817      4.99337442
  H     10.00251440      5.00248571      7.13834108
  H      8.68178106      5.03281494      8.32546634
  H     10.53599768      3.60029542      9.14804989
  H     10.38103343      2.56235837      7.72958270
  H      9.06253058      2.65498724      8.90945283
  H      5.93755160      1.15253979      4.77600079
  H      4.89477462      2.58894993      4.72124957
  H      5.18120657      1.73660755      6.27378033
 Cl      4.25821419      4.23614458      3.18615650
 Cl      6.45847436      1.69911190      9.47799728
 Cl     10.73542572      6.54493101      5.53583030
 Cl      4.76025079      8.38029480      8.97641206
 Cl     -1.28640091      1.23847786     -1.76589532

