62
Energy =    -96.25775202 au
  N      7.45468759      3.01160032      1.17167642
  C      7.02368402      2.28891297      2.19961808
  N      5.73612981      2.54694236      2.40943664
  C      5.33362529      3.48576360      1.51072505
  C      6.40855684      3.77162253      0.72970413
  C      8.75258159      2.91025151      0.53824526
  C      8.73908282      1.82393068     -0.52665881
  C      4.91691890      2.00700906      3.45505278
  H      7.61408805      1.58215459      2.74504108
  H      4.31516326      3.83630670      1.51108687
  H      6.51283362      4.44360692     -0.09663953
  H      8.99111772      3.87373689      0.08591965
  H      9.49553524      2.69156258      1.30615663
  H      9.68420018      1.82863065     -1.08051711
  H      7.93405550      2.00093378     -1.23718595
  H      8.60087891      0.84298938     -0.07729599
  H      4.85651976      0.92174823      3.36674720
  H      3.92055202      2.44356991      3.36192858
  H      5.35348702      2.26357700      4.42060879
  N      3.51912608      6.76524371      3.47761798
  C      4.64932257      7.23522996      2.95741055
  N      5.64137180      6.40204648      3.25056984
  C      5.13871942      5.39470194      4.01940027
  C      3.80863998      5.62028879      4.15900911
  C      2.22810414      7.38494911      3.34159340
  C      1.62163062      7.06486425      1.97951675
  C      7.02763968      6.58932501      2.93852832
  H      4.73112249      8.10722875      2.34321820
  H      5.78414518      4.62359819      4.38937003
  H      3.05023191      5.04106251      4.63997542
  H      1.58412847      6.99370895      4.13110975
  H      2.35769736      8.46177242      3.48611472
  H      0.61036853      7.45759840      1.91652063
  H      1.59339480      5.98316235      1.85243682
  H      2.21880678      7.49619427      1.17919051
  H      7.58546974      5.73918663      3.33212649
  H      7.37412207      7.51306786      3.40375599
  H      7.17142547      6.65802402      1.85961817
  N      4.91442636      6.91938765      7.66818073
  C      6.06469293      7.49407908      7.32044321
  N      6.88488417      6.56047091      6.84777369
  C      6.27833681      5.34512644      6.98133455
  C      5.04167419      5.56977345      7.48692375
  C      3.77839523      7.61478210      8.20689322
  C      2.82562580      8.03462288      7.09239505
  C      8.23093894      6.76569082      6.40247513
  H      6.22925645      8.54970674      7.25826663
  H      6.76790469      4.44270267      6.67460784
  H      4.25395877      4.88864489      7.73379961
  H      3.27913976      6.95674036      8.92434663
  H      4.16084554      8.48624544      8.74266404
  H      2.04912721      8.68674561      7.48370139
  H      2.35990034      7.16022253      6.64214442
  H      3.38244637      8.56420725      6.32151609
  H      8.54152424      5.90034039      5.81862431
  H      8.88677130      6.88865471      7.26721616
  H      8.27781567      7.66673929      5.79297689
 Cl      6.94644234      7.82665850      9.70513761
 Cl      7.93434935      3.59186700      4.43879714
 Cl     11.46953522      1.89008740     -2.44389171
 Cl      5.16783519      9.13720496      4.71516644
 Cl      2.14098108      3.66015607      2.32641515
