#B3LYP/6-31+G(d) OPT FREQ

62, Energy =    -96.26679246 au

0 1
  N      6.60953582      8.85251778      3.06403390
  C      6.99003168      7.62396573      3.40141456
  N      6.87938266      7.48719914      4.71854736
  C      6.41241056      8.66371740      5.23022079
  C      6.24119891      9.52186805      4.18777855
  C      6.56541061      9.39810658      1.72881048
  C      5.50566079      8.68867107      0.89501891
  C      7.21652579      6.31666698      5.47611466
  H      7.30741209      6.84669513      2.71360830
  H      6.23197899      8.79132542      6.27705803
  H      5.94365541     10.55926608      4.12328243
  H      6.34800757     10.46905606      1.83376791
  H      7.54614264      9.26497965      1.26576859
  H      5.47437147      9.12691782     -0.09818507
  H      4.52544030      8.80510358      1.35190266
  H      5.73818947      7.62994744      0.80382773
  H      7.62729416      5.56581705      4.80666450
  H      6.32820311      5.90584125      5.97055629
  H      7.95124323      6.56758451      6.24141226
  N      2.45368015      5.60047324      3.82335512
  C      2.09065922      4.97560158      4.93874070
  N      0.76582151      4.88641200      4.97174025
  C      0.26107123      5.46148131      3.84744633
  C      1.32210454      5.91038851      3.12369712
  C      3.81749992      5.83764242      3.40720273
  C      4.16070747      5.00149858      2.18220326
  C     -0.03774361      4.29261027      6.00314480
  H      2.79285169      4.66078267      5.70089084
  H     -0.80883054      5.47227772      3.68533173
  H      1.35400238      6.42411319      2.18571513
  H      3.93583800      6.90146083      3.18450601
  H      4.45941517      5.57011764      4.24843389
  H      5.19284685      5.17475037      1.88687448
  H      3.51753529      5.26009316      1.34438055
  H      4.03922717      3.94430083      2.40365545
  H      0.26040716      3.25732057      6.16324197
  H     -1.08410827      4.33817735      5.67384716
  H      0.08166450      4.84248000      6.93620885
  N      6.52722206      1.49841979      5.10691906
  C      7.15525617      0.97393011      4.06178581
  N      7.33320747      1.92816938      3.15212771
  C      6.79920243      3.08759131      3.63084145
  C      6.29057905      2.81904480      4.86222570
  C      6.16287609      0.76955139      6.29787597
  C      4.67050533      0.89670726      6.57471899
  C      7.96165081      1.79853941      1.86799895
  H      7.46688588     -0.07041672      4.02653899
  H      6.84471886      3.98934360      3.04811405
  H      5.78063015      3.45708911      5.56220597
  H      6.46047175     -0.27154681      6.13564953
  H      6.72867868      1.17744403      7.14094597
  H      4.41264475      0.31030369      7.45196286
  H      4.09517266      0.52691597      5.72911651
  H      4.40300463      1.93474950      6.75929209
  H      8.94546802      1.34248379      1.97261166
  H      8.05519777      2.79557732      1.43567064
  H      7.35524642      1.17553844      1.20927679
 Cl      7.74159142     -1.98348255      4.84503263
 Cl      7.58293107      5.27563639      1.27443277
 Cl      5.98909462     12.45609366      2.94751019
 Cl      4.58416879      4.81503682      6.92277005
 Cl     -2.83925690      4.81970201      4.34966468

