62
Energy =    -96.25660931 au
  N      7.36484398      6.69064465      6.26450189
  C      8.45949463      6.58096337      5.52128431
  N      8.65651321      5.30267282      5.22450720
  C      7.63731350      4.57229512      5.75307584
  C      6.82667708      5.44341621      6.40948383
  C      6.83710732      7.92469297      6.78733639
  C      5.95949248      8.62071922      5.75450421
  C      9.70507913      4.77094680      4.40466104
  H      9.11595912      7.39232118      5.28290068
  H      7.61661721      3.50352707      5.63979336
  H      5.92082853      5.28199748      6.95707388
  H      6.27202473      7.69624159      7.69501126
  H      7.69560449      8.54481176      7.05706666
  H      5.75235557      9.64031455      6.06470211
  H      5.01746361      8.09097032      5.62985184
  H      6.47796982      8.63370691      4.79938297
  H      9.53290519      5.06692026      3.36847562
  H      9.69276888      3.68430886      4.48890148
  H     10.66708205      5.16142333      4.73190445
  N      8.67696618      3.13725004      8.83531295
  C      8.46400208      4.01927427      9.82000604
  N      9.17508318      5.12472798      9.57213089
  C      9.86053374      4.93733513      8.40995350
  C      9.54718988      3.69619055      7.94880821
  C      8.06035527      1.84303610      8.67703219
  C      6.54027756      1.94380342      8.69735916
  C      9.21768437      6.32065427     10.36076362
  H      7.83110423      3.86931865     10.67056795
  H     10.44207776      5.73868112      7.99354603
  H      9.82801226      3.15378904      7.06249226
  H      8.38994870      1.46284867      7.69945059
  H      8.41033246      1.17472400      9.47025515
  H      6.11579880      0.96281990      8.50568143
  H      6.20889209      2.61895632      7.91306197
  H      6.16955173      2.30142360      9.65701312
  H      9.39779735      7.16008634      9.67138463
  H     10.03659432      6.27764690     11.08026620
  H      8.27751657      6.45655602     10.89040540
  N      2.58060075      5.43416835      3.67360971
  C      2.65932905      6.60074198      3.04273116
  N      3.93661509      6.96097672      2.96649889
  C      4.69826997      5.99798129      3.55533425
  C      3.84559123      5.03468014      3.99940923
  C      1.34888903      4.71746932      3.89995193
  C      1.21756832      3.55085976      2.92903723
  C      4.45705303      8.15639820      2.36590936
  H      1.76472860      7.14091965      2.72826840
  H      5.77244949      6.09077449      3.57974959
  H      4.04762331      4.11647354      4.51194736
  H      1.33381459      4.36025442      4.93281758
  H      0.53489753      5.43721552      3.73479665
  H      0.29002013      3.02092311      3.12394573
  H      2.05001785      2.85541838      3.03059887
  H      1.19068381      3.92435817      1.90911033
  H      4.07903026      8.25969684      1.35089185
  H      5.54790344      8.08108333      2.35835185
  H      4.15674872      9.03030850      2.94456554
 Cl      9.99684155      8.08353499      7.79468505
 Cl      7.62610512      7.23107477      2.99051202
 Cl     -0.32374988      7.36892211      2.86627635
 Cl      0.46222031     -2.52945650     47.80738419
 Cl      9.07438900      1.53247022      5.58082497
