62
Energy =    -96.27124402 au
  N      2.66835692      4.98062875      5.99835231
  C      1.99169465      4.84380435      4.86053776
  N      0.76223580      5.31341426      5.04476424
  C      0.64568732      5.75179913      6.32859646
  C      1.84803849      5.54429360      6.92934723
  C      4.04362083      4.61098673      6.24212759
  C      4.93662478      4.98273069      5.06694049
  C     -0.29005374      5.37643375      4.07076266
  H      2.36463637      4.38695472      3.94466796
  H     -0.26705756      6.20503114      6.66512008
  H      2.21663834      5.76425211      7.91654406
  H      4.34616277      5.11894678      7.16334091
  H      4.09389489      3.53010406      6.41172665
  H      5.97051602      4.74904015      5.30498276
  H      4.86053398      6.04571158      4.85064278
  H      4.65165793      4.42159572      4.17959316
  H      0.13419145      5.53748667      3.08273729
  H     -0.95950376      6.19416233      4.34776949
  H     -0.85556446      4.44316217      4.06463602
  N      1.21006674      8.77309949      7.36128694
  C      2.49953375      8.62494148      7.64801449
  N      3.20551254      8.77345881      6.53034083
  C      2.34951516      9.02184732      5.50364327
  C      1.09251978      9.02331278      6.02670176
  C      0.08978851      8.73446978      8.27094075
  C      0.42375111      8.04020966      9.57995868
  C      4.63521270      8.69780778      6.42648400
  H      2.92690378      8.28528094      8.57807461
  H      2.71974904      9.22701603      4.51411350
  H      0.13043981      9.12155961      5.56641306
  H     -0.22816017      9.76624055      8.46325197
  H     -0.73226033      8.23230046      7.74316223
  H     -0.49248829      7.86204165     10.13702834
  H      1.08851049      8.64739773     10.19166910
  H      0.91118589      7.08688023      9.39894268
  H      5.09488680      9.34560664      7.17243234
  H      4.92427212      9.02887676      5.42570917
  H      4.96889012      7.67759453      6.61111376
  N      5.27302199      6.44080003      1.98648875
  C      6.13021415      7.38922194      2.34934988
  N      7.36714239      6.92649049      2.20607247
  C      7.30251904      5.64866627      1.74072884
  C      5.98262472      5.34410653      1.59951613
  C      3.83890720      6.58438542      1.94564488
  C      3.41723293      7.36847958      0.70764489
  C      8.58301367      7.62587692      2.50296742
  H      5.83179882      8.36981645      2.70469768
  H      8.20695728      5.10991729      1.51712414
  H      5.48814049      4.44248905      1.30025401
  H      3.40592309      5.57908113      1.94708297
  H      3.52353723      7.13243092      2.83602901
  H      2.33265592      7.40642139      0.65455585
  H      3.79599064      6.89391336     -0.19579279
  H      3.79927933      8.38544902      0.76811057
  H      9.40580439      7.10959728      1.99126855
  H      8.77190909      7.61419900      3.57785784
  H      8.50941769      8.65969462      2.17030781
 Cl     -2.03780916      7.67283466      5.93270774
 Cl      3.80283841      6.41002346      9.43663196
 Cl      3.11789745      3.32356425      2.29776402
 Cl     10.55304545      5.49645693      0.97858142
 Cl      4.66816602     10.06261996      3.35262434
