#B3LYP/6-31+G(d) OPT FREQ

62, Energy =    -96.26988198 au

0 1
  N      5.00508579      3.60774043      8.27636211
  C      4.06747059      3.81821417      7.35943479
  N      4.65512349      4.15102803      6.21523363
  C      6.00481262      4.15456766      6.40682728
  C      6.22493159      3.81061937      7.70236473
  C      4.79542422      3.14604413      9.62713459
  C      4.54679449      1.63916509      9.62412413
  C      3.99011674      4.39402207      4.96828496
  H      3.01139248      3.69846479      7.50132863
  H      6.67802634      4.38691759      5.60229474
  H      7.11811895      3.72633219      8.29297502
  H      5.69680361      3.40153041     10.19529059
  H      3.93519549      3.67447506     10.04912128
  H      4.22145696      1.30911325     10.60609919
  H      5.46025354      1.11091688      9.36262565
  H      3.78201063      1.38905218      8.89182516
  H      3.33025429      3.55237585      4.75179438
  H      4.74180733      4.49874564      4.19104308
  H      3.39647908      5.30700895      5.02044219
  N      5.74839314      1.74341626      2.24763407
  C      4.76885159      0.84884363      2.15750419
  N      4.37709422      0.52968409      3.38560469
  C      5.12927328      1.22641927      4.28279592
  C      5.98988519      1.99450699      3.56440367
  C      6.41135107      2.39835623      1.14653733
  C      5.39835720      2.93591570      0.14458285
  C      3.31195678     -0.36970167      3.71955729
  H      4.34719266      0.45278210      1.22988220
  H      4.93602957      1.16795683      5.33426311
  H      6.72465397      2.71481372      3.86699501
  H      7.01244020      3.20657297      1.57236322
  H      7.07448710      1.68598390      0.64804955
  H      5.91956435      3.43120105     -0.66731972
  H      4.74052314      3.65300459      0.62745728
  H      4.79590804      2.12690285     -0.26573639
  H      2.66842807     -0.50168083      2.84864390
  H      2.75377277      0.05632260      4.56195813
  H      3.71445279     -1.33837566      4.02217723
  N      8.54745537      7.90795244      8.65930918
  C      8.63589020      6.61289903      8.36726169
  N      9.16278739      6.48343536      7.15354819
  C      9.40981754      7.73222814      6.65906756
  C      9.02346440      8.62789347      7.60735946
  C      8.04789487      8.49093959      9.88439617
  C      8.68791601      7.84293780     11.10436716
  C      9.45814399      5.24896451      6.48395804
  H      8.34937913      5.79571120      9.02223557
  H      9.83284044      7.87843344      5.68581425
  H      9.07039734      9.70615960      7.66443857
  H      8.27707601      9.56258741      9.83381117
  H      6.96229876      8.35683834      9.91847707
  H      8.28890408      8.29887829     12.00460357
  H      9.76409564      7.99681626     11.08787294
  H      8.48221077      6.77576867     11.13349886
  H      9.18796626      4.41987182      7.13207539
  H     10.52276953      5.19843915      6.25285757
  H      8.89717486      5.17023893      5.54489473
 Cl      7.99090390      4.21927114     10.44899975
 Cl      3.59982759     -0.16133276     -0.58472804
 Cl      9.02406892     11.58372312      8.92272302
 Cl      2.64727987      1.47668786      6.47446291
 Cl      7.69284307      4.84001353      3.61756111

