62
Energy =    -96.26096070 au
  N      7.30886530      4.13312625      2.03475202
  C      7.47880973      2.89822152      1.56975430
  N      7.51159809      2.06261472      2.60294728
  C      7.36686547      2.77688848      3.75402220
  C      7.23764070      4.08114532      3.39499256
  C      7.20221736      5.33867475      1.24672558
  C      6.19058010      5.16703098      0.12220077
  C      7.67671559      0.63839092      2.54521597
  H      7.55773222      2.62551271      0.51270607
  H      7.34711594      2.27474723      4.70519382
  H      7.09494239      4.96973956      3.97731565
  H      6.91572171      6.14214481      1.93203360
  H      8.18358010      5.56901178      0.82085601
  H      6.08182265      6.10269648     -0.41946907
  H      5.22297887      4.87649850      0.52537824
  H      6.52328451      4.39617246     -0.57202063
  H      7.05017192      0.22322002      1.75802784
  H      7.39923271      0.22309034      3.51576727
  H      8.71672646      0.38625089      2.33126747
  N      4.54631896      3.14657387      7.54601989
  C      4.68634901      1.82481109      7.48891361
  N      3.80557434      1.26678916      8.31164718
  C      3.07487003      2.24683494      8.90846024
  C      3.53905170      3.43010636      8.42621884
  C      5.29593191      4.11757354      6.78346689
  C      4.45932032      4.69491587      5.64911296
  C      3.62688097     -0.13490054      8.56315203
  H      5.43325545      1.29868890      6.89293983
  H      2.31299211      1.98555506      9.63208577
  H      3.24197282      4.43500747      8.64363261
  H      5.60948750      4.91947734      7.45686083
  H      6.18050043      3.62090533      6.38395775
  H      5.01053789      5.50109680      5.17170832
  H      3.52249943      5.09644026      6.03001032
  H      4.24265930      3.92914163      4.90877486
  H      2.88939686     -0.23692843      9.36758011
  H      4.57456877     -0.58566764      8.85432516
  H      3.26604994     -0.63531134      7.66458533
  N      4.07588967     10.40145852      2.18935083
  C      4.43326761      9.18952127      2.59845203
  N      3.51017457      8.31508625      2.21417855
  C      2.53675387      8.99396297      1.53685509
  C      2.89579829     10.30632868      1.51898058
  C      4.81854829     11.62755098      2.35897539
  C      6.03345914     11.64590624      1.43628292
  C      3.55630164      6.90504313      2.48581808
  H      5.30728213      8.90171897      3.16747945
  H      1.67917830      8.50170062      1.12637981
  H      2.42594982     11.20382169      1.13429592
  H      4.13260892     12.44592487      2.09776865
  H      5.13004444     11.70869585      3.40342037
  H      6.59525132     12.56219757      1.59521075
  H      5.70760510     11.61903584      0.39825106
  H      6.68463403     10.79496310      1.62877769
  H      3.56748637      6.34225063      1.55271603
  H      2.68895268      6.60454485      3.07426145
  H      4.47012972      6.70421596      3.05221045
 Cl      2.31314652     13.40282068      1.11180769
 Cl      1.30342383      0.46718526     10.88321639
 Cl      7.55705656      2.35506474     -1.52603747
 Cl      6.42099493      7.27936217      4.18761589
 Cl      7.04756007      0.35624425      5.95850769
