#B3LYP/6-31+G(d) OPT FREQ

62, Energy =    -96.26257459 au

0 1
  N     10.59453223      1.77112079      4.30289657
  C      9.43804300      1.67952611      4.96277644
  N      8.74453776      2.80206624      4.77720103
  C      9.52248502      3.66808365      4.06358680
  C     10.67539686      3.02451679      3.76153303
  C     11.59869090      0.74315072      4.27327941
  C     11.41095329     -0.15992777      3.05797976
  C      7.46474560      3.05187054      5.36790829
  H      9.03112250      0.77629371      5.36571363
  H      9.20269824      4.66350062      3.83399235
  H     11.53364840      3.35143803      3.21187339
  H     12.58373322      1.21802145      4.26180290
  H     11.50000858      0.17508466      5.20093509
  H     12.00500193     -1.06405893      3.15797700
  H     11.70657493      0.36062957      2.15064357
  H     10.36122823     -0.42798214      2.96934874
  H      6.74367360      2.32838555      4.98394239
  H      7.13682676      4.06038527      5.12678186
  H      7.55339938      2.93695711      6.45056788
  N      5.46003187     -0.25762511     -0.05567581
  C      5.28905759     -0.16394755     -1.37570127
  N      6.06214395     -1.06482113     -1.97605638
  C      6.67889669     -1.80667214     -1.01219392
  C      6.29917968     -1.30904157      0.19099789
  C      4.78087270      0.50734523      0.95972554
  C      3.52081974     -0.21951117      1.41786818
  C      6.12640547     -1.24448860     -3.39403506
  H      4.77529315      0.62718031     -1.87906877
  H      7.33136752     -2.62074482     -1.25308181
  H      6.58400839     -1.57013127      1.18912101
  H      5.48100363      0.65087676      1.78850859
  H      4.51813280      1.47713875      0.53082818
  H      2.92634889      0.42547887      2.05913845
  H      3.78063012     -1.12108262      1.96678469
  H      2.93649313     -0.50279273      0.54462375
  H      5.10747351     -1.35119002     -3.77072042
  H      6.70553933     -2.13565170     -3.62514498
  H      6.59916983     -0.36805572     -3.84149517
  N      8.34696051      2.98612776      0.23560215
  C      8.33328323      1.67107954      0.03423381
  N      9.58274680      1.21950418      0.01198424
  C     10.42215909      2.28567332      0.15456496
  C      9.65048393      3.39151340      0.30132771
  C      7.16591849      3.80485263      0.31399570
  C      6.64603301      3.87316748      1.74715638
  C      9.91668263     -0.14332103     -0.27086154
  H      7.46323036      1.05434736      0.03032566
  H     11.48768345      2.18105644      0.13263286
  H      9.92169323      4.41751827      0.44055938
  H      7.40708958      4.80042177     -0.06805952
  H      6.42307383      3.35146458     -0.34623233
  H      5.61387496      4.21061757      1.76245484
  H      7.24792719      4.55698988      2.33985514
  H      6.70719198      2.88439582      2.19599006
  H      9.45663283     -0.78553153      0.48089021
  H     10.99652259     -0.27247461     -0.26511544
  H      9.51344297     -0.39423775     -1.25488217
 Cl      3.06491830     -1.31901357     -1.86951562
 Cl      7.88043336      0.64006978      2.64436185
 Cl     10.24962479      2.05976665      7.26817150
 Cl    -16.65136386     24.92213633     16.40666667
 Cl      7.87318405      1.55215133     -2.47781601

