62
Energy =    -96.26842288 au
  N      0.67546881      7.41267085      7.63929327
  C      0.40499571      6.59742373      6.62483488
  N      1.52776835      6.36761513      5.95469979
  C      2.54565706      7.05060550      6.55486459
  C      2.00545208      7.70518434      7.61709777
  C     -0.24945533      7.89491833      8.63470577
  C     -0.73102706      6.75087980      9.51947223
  C      1.61280337      5.52558616      4.79560873
  H     -0.55097731      6.17481298      6.32359222
  H      3.55146234      7.04801399      6.17627112
  H      2.42192453      8.36487370      8.35525986
  H      0.28383637      8.64495404      9.22787252
  H     -1.10002836      8.36142759      8.13043588
  H     -1.42163266      7.13149540     10.26687249
  H      0.11322505      6.29364378     10.02978683
  H     -1.23700450      5.99521251      8.92239379
  H      0.59878072      5.20831681      4.53745291
  H      2.22744795      4.65120141      5.01223703
  H      2.06184544      6.07377841      3.96798554
  N      7.27698672      4.55722640      6.54507501
  C      7.53163422      5.08305244      5.35268296
  N      8.74611966      4.70450339      4.96365209
  C      9.28004741      3.90902995      5.93091497
  C      8.35344267      3.81530380      6.92561306
  C      6.04795871      4.71983740      7.28081837
  C      5.03798062      3.64921065      6.88297079
  C      9.40961152      5.06745989      3.74279641
  H      6.87803385      5.77479541      4.84949559
  H     10.26038609      3.48391819      5.79546686
  H      8.38512115      3.34223039      7.88632646
  H      6.28855897      4.64503061      8.34703322
  H      5.65270878      5.71067655      7.04810380
  H      4.12286298      3.79028940      7.45057625
  H      5.42938934      2.65692347      7.09659155
  H      4.80711810      3.71603363      5.82077413
  H     10.36690781      4.52824487      3.70731066
  H      9.58918036      6.14232045      3.71717319
  H      8.79773192      4.79155475      2.88442077
  N      7.11463910      7.76602509      8.51665952
  C      6.64468470      8.78448139      7.80398845
  N      5.46270408      9.14661393      8.28794027
  C      5.15966733      8.32549745      9.33310325
  C      6.19929758      7.46076496      9.48014254
  C      8.39355596      7.12235888      8.35107912
  C      9.50382684      7.94561422      8.99558713
  C      4.60871120     10.16316536      7.74384007
  H      7.13723119      9.23873846      6.96911771
  H      4.24681048      8.45177896      9.88395970
  H      6.36600030      6.63143157     10.14237653
  H      8.33032036      6.14260551      8.84211062
  H      8.58370367      6.99971437      7.28298040
  H     10.45300741      7.43761485      8.85357120
  H      9.32160659      8.04282167     10.06295719
  H      9.56648664      8.93994827      8.55436534
  H      5.15404475     11.10215626      7.64642051
  H      3.75298451     10.29690097      8.41025118
  H      4.26494388      9.84651536      6.75805366
 Cl      2.19098666      9.92652020     10.07245339
 Cl      5.67000719      7.69257046      5.38361069
 Cl      7.60984898      4.49432657     10.22801933
 Cl     12.04349020      3.20496206      4.20374580
 Cl     -1.78101283      5.04547512      5.00169683
