62
Energy =    -96.08725806 au
  N      2.85065238      8.95715554      1.19397705
  C      3.85510129      8.88272194      2.12093135
  N      4.59242447     10.02805903      2.04268566
  C      4.03722167     10.83401368      1.09214093
  C      2.96311107     10.18330657      0.57868929
  C      1.76011529      8.03177773      1.06290695
  C      0.60983052      8.35197927      2.01433089
  C      5.74990455     10.36311156      2.81304700
  H      4.06208138      8.03663201      2.73711063
  H      4.49912906     11.79071005      0.91043160
  H      2.27186861     10.47850450     -0.18305582
  H      1.38368037      8.05815741      0.03879994
  H      2.13006908      7.02247754      1.25885615
  H     -0.23163553      7.71816890      1.74842597
  H      0.30970521      9.39132185      1.90224721
  H      0.89334519      8.17585009      3.04956659
  H      6.06159522     11.36499468      2.49456857
  H      6.54768930      9.63854420      2.63423764
  H      5.51173333     10.35652296      3.87889503
  N     -0.41242995      3.99352509      7.93206394
  C     -1.05544872      3.03029933      7.07943794
  N      0.00699341      2.26609856      6.53733635
  C      1.19023764      2.85838670      6.85283787
  C      0.95888132      3.90639591      7.66857356
  C     -1.04947011      5.26628291      8.16466832
  C     -0.73170178      5.79606828      9.56282639
  C     -0.15659458      1.23351362      5.56480816
  H     -1.81850291      2.43627859      7.59628057
  H      2.11267693      2.47697115      6.46061527
  H      1.65365635      4.58763635      8.11829390
  H     -0.74702680      6.01670650      7.41472761
  H     -2.12764025      5.11160838      8.06631395
  H     -1.25665566      6.73241312      9.73905265
  H      0.33560893      5.97182746      9.66920229
  H     -1.03683540      5.07208512     10.31500466
  H     -0.65811293      0.36444292      6.00613778
  H      0.82826355      0.93784796      5.20090690
  H     -0.76058589      1.57902955      4.71780911
  N      1.09794135      3.32970194      2.20824637
  C      0.38023196      3.88239328      1.20889059
  N     -0.12609013      2.88744535      0.45190527
  C      0.28797141      1.69466811      0.99074220
  C      1.04444799      1.97431462      2.08124619
  C      1.78757620      4.02982162      3.25994085
  C      0.81858899      4.85644768      4.09776842
  C     -0.93889695      3.08340905     -0.71073984
  H      0.21000655      4.92182933      0.99192398
  H      0.01314766      0.75356556      0.56047870
  H      1.57926011      1.34172785      2.77064441
  H      2.28831433      3.27108987      3.86977813
  H      2.54366459      4.68486092      2.81327778
  H      1.36336640      5.37018736      4.88448534
  H      0.07672645      4.21434695      4.56357038
  H      0.30880235      5.59126171      3.47867120
  H     -1.91587829      2.61345301     -0.58014514
  H     -0.45615628      2.65741923     -1.59286755
  H     -1.06699885      4.16161318     -0.84914908
 Cl      7.10127360     15.25684601      1.20108567
 Cl      3.11091103      0.97019269      4.41790742
 Cl     -0.84155643      6.39879652     -0.44197920
 Cl      6.16771760     13.41660878      1.41766421
 Cl      8.27399251     17.54224676      0.94656070
