62
Energy =    -96.23649623 au
  N      3.93993359      2.66241838      2.42103707
  C      3.36713816      2.16361689      3.51487268
  N      3.86964474      2.77089164      4.58519647
  C      4.83255854      3.64231303      4.16698021
  C      4.88039723      3.57658995      2.81228114
  C      3.71681263      2.20003183      1.07226997
  C      3.79144569      3.33613599      0.06364951
  C      3.60150724      2.44844102      5.95578689
  H      2.58158399      1.43684547      3.52564524
  H      5.41155334      4.19957336      4.88306642
  H      5.52247427      4.08529605      2.11457360
  H      4.47210010      1.44174564      0.84022996
  H      2.73662057      1.71608245      1.04550459
  H      3.55787606      2.95706197     -0.92731614
  H      4.78824462      3.76728252      0.03787410
  H      3.07943807      4.11837999      0.31566393
  H      2.55953377      2.64944198      6.20791899
  H      4.25775510      3.05251265      6.58096786
  H      3.81052051      1.38829034      6.11053897
  N      7.82704719      0.38104180      3.30196850
  C      7.26124913      1.21393298      4.18910102
  N      7.64315173      0.86346457      5.42317960
  C      8.44573200     -0.23536427      5.31655449
  C      8.56101853     -0.53375305      3.99781039
  C      7.55181367      0.35682325      1.88856133
  C      8.27201581      1.46813674      1.13559620
  C      7.17988560      1.44053423      6.65117712
  H      6.62912293      2.04325343      3.95033427
  H      8.86592913     -0.71995624      6.17349649
  H      9.09482256     -1.32442575      3.51200497
  H      7.86535155     -0.61978226      1.51216313
  H      6.46805329      0.44182706      1.77289401
  H      8.17126681      1.30460236      0.06631003
  H      9.33132095      1.47332284      1.38441496
  H      7.85203393      2.44513682      1.35826086
  H      7.92381549      1.28484702      7.42987389
  H      6.24463444      0.96566678      6.95279795
  H      7.00083896      2.51374660      6.53264685
  N      6.86138226      7.80892409      2.21296063
  C      7.80655646      6.86266503      2.32935710
  N      7.62989695      6.21521596      3.48562800
  C      6.54620642      6.74408878      4.11499213
  C      6.06520432      7.73769228      3.32815962
  C      6.66201421      8.71892319      1.10991955
  C      7.17507176      8.14789975     -0.20424319
  C      8.35835954      5.05951648      3.91919839
  H      8.58535564      6.66615469      1.62631538
  H      6.22601896      6.36924001      5.06935685
  H      5.22787598      8.38938825      3.46521938
  H      5.58766289      8.90812185      1.03916058
  H      7.15999832      9.67168426      1.33436096
  H      6.75791360      8.70496238     -1.03813239
  H      6.87850611      7.10503639     -0.29159852
  H      8.25856071      8.20438058     -0.26144102
  H      8.22960575      4.26838065      3.17874032
  H      7.95656187      4.74453130      4.88360169
  H      9.42005126      5.28920150      4.01463581
 Cl      6.48352777      4.70843979      6.77374207
 Cl    -39.49731391     25.63255137     33.59706820
 Cl      4.80600086     -0.06176620      3.82285260
 Cl     20.79989592     33.06290464     -1.75150066
 Cl      7.04223508      4.76946760      0.64555935
