#B3LYP/6-31+G(d) OPT FREQ

62, Energy =    -96.13159686 au

0 1
  N      9.58274367     -0.40159396      1.09424664
  C      9.12607631      0.37293569      0.09617656
  N      9.48274142      1.64174067      0.33708508
  C     10.17042200      1.67873495      1.51312129
  C     10.22892840      0.40981112      1.98830871
  C      9.28917709     -1.80119473      1.24324552
  C     10.07017458     -2.65033665      0.24545234
  C      9.18003506      2.78616411     -0.47185997
  H      8.55515193      0.03225079     -0.73955011
  H     10.53210576      2.61435845      1.90004853
  H     10.67092537      0.02379149      2.88351213
  H      9.53819341     -2.09247007      2.26545161
  H      8.21144093     -1.92334137      1.09298206
  H      9.83327519     -3.70020370      0.39271267
  H     11.14105250     -2.51143590      0.38001956
  H      9.80852729     -2.37716703     -0.77329910
  H      9.78571948      2.78502610     -1.38093944
  H      9.41194308      3.68205491      0.11146987
  H      8.12601866      2.77583413     -0.74642160
  N      6.07130020      3.61715056      1.20431513
  C      6.79694934      2.92324634      2.09376962
  N      7.39436113      3.78373284      2.92320573
  C      7.04889677      5.05017718      2.55961428
  C      6.22083232      4.94697058      1.48784558
  C      5.22426823      3.03192325      0.19705870
  C      3.75566479      3.10325110      0.60617113
  C      8.32738489      3.46185605      3.96060695
  H      6.88502384      1.85021348      2.07438241
  H      7.46776393      5.92385593      3.07082828
  H      5.74223139      5.70992556      0.90982429
  H      5.37914347      3.56151793     -0.74763136
  H      5.52550378      1.98488605      0.09045590
  H      3.13814539      2.66816772     -0.17427277
  H      3.44353465      4.13323556      0.76926432
  H      3.60017903      2.53846669      1.52167386
  H      8.00030420      3.89112761      4.90765698
  H      9.29506180      3.89277517      3.68293563
  H      8.41424772      2.38192180      4.04896159
  N      7.91025330      8.02405597      5.05991267
  C      8.47778259      7.38571462      3.92491412
  N      8.49347422      8.36225209      2.91256247
  C      7.88593198      9.49058171      3.37901721
  C      7.56118713      9.31312206      4.67733013
  C      8.26188905      7.67281658      6.40778926
  C      9.64161470      8.19412252      6.82462269
  C      9.02430559      8.15165482      1.60352124
  H      9.38666917      6.81012083      4.06226280
  H      7.72539522     10.34351337      2.74854329
  H      7.08456632      9.98431116      5.36348720
  H      7.49653102      8.08044420      7.07679642
  H      8.24430318      6.58168632      6.48424601
  H      9.86371318      7.89902013      7.84692484
  H      9.66952616      9.27965022      6.75637399
  H     10.40690967      7.78654625      6.16852510
  H      9.49895447      7.17149242      1.57508320
  H      9.76697682      8.91584455      1.35666672
  H      8.23357190      8.17733714      0.84644681
 Cl     10.32426451      4.94009205      1.84469532
 Cl    -32.60263513     15.82033073    -17.90648509
 Cl     16.66752248     -4.97622077     28.90038638
 Cl      6.47628929     -0.04052869      0.88638938
 Cl     18.65618142     -4.11844798     27.72056081

