62
Energy =    -96.25179237 au
  N      2.94302678      0.81689637      7.53488132
  C      2.55648962      1.64220180      6.56911423
  N      3.28519304      1.42597824      5.48397938
  C      4.14927547      0.40703592      5.75668665
  C      3.93429325      0.02514198      7.04073336
  C      2.37724933      0.75361962      8.85505400
  C      1.27510314     -0.29943225      8.90901452
  C      3.16739587      2.12217947      4.23730389
  H      1.79659099      2.38734923      6.66774988
  H      4.83421584      0.02446404      5.02972005
  H      4.41162348     -0.72968940      7.63093235
  H      3.18146616      0.53247069      9.56250704
  H      1.97795105      1.74310717      9.08441602
  H      0.69950021     -0.20236250      9.82556123
  H      1.69764290     -1.30065878      8.85962519
  H      0.61905128     -0.16377030      8.05029553
  H      2.20191859      2.62007384      4.20920716
  H      3.21428072      1.40808216      3.41602998
  H      3.96770222      2.86082427      4.12473132
  N      4.21557876      6.48528079      6.01245898
  C      5.28763616      5.78648078      6.36898623
  N      5.91883144      6.43055774      7.34193355
  C      5.22219130      7.56068885      7.64178163
  C      4.15083104      7.59557115      6.80828333
  C      3.23150201      6.07435778      5.04387546
  C      2.05927203      5.40775828      5.75395848
  C      7.09828871      6.01011233      8.04155825
  H      5.59952408      4.88178909      5.88604038
  H      5.59722064      8.24804912      8.38545150
  H      3.36061719      8.31196783      6.71683440
  H      2.90648794      6.95521541      4.48074216
  H      3.71622951      5.37169793      4.36290396
  H      1.38857713      4.94476292      5.03600295
  H      1.50119783      6.13296765      6.34376084
  H      2.45514600      4.64740612      6.42359319
  H      7.43832951      6.84920449      8.65505169
  H      7.87460095      5.72264371      7.33316722
  H      6.85652197      5.15459960      8.67412592
  N      7.86571556      1.14790243      5.60258042
  C      7.15340080      1.77410196      4.67379121
  N      6.96348297      0.94816531      3.64774972
  C      7.56868717     -0.24141361      3.94261998
  C      8.13063037     -0.11589546      5.17431493
  C      8.29743930      1.65618570      6.88308466
  C      7.18405581      1.55327414      7.91826824
  C      6.27121818      1.26896367      2.43128902
  H      6.77766744      2.78594845      4.68625286
  H      7.55564201     -1.06997934      3.26503830
  H      8.76999838     -0.76884315      5.76181795
  H      9.15049171      1.03878904      7.18662804
  H      8.60820288      2.69585575      6.76185928
  H      7.55618049      1.90457195      8.87625525
  H      6.87779118      0.51615598      8.02909281
  H      6.31816834      2.15403713      7.64532236
  H      5.40071872      0.62406030      2.30665119
  H      6.93613209      1.13412628      1.57755211
  H      5.95209534      2.31483350      2.48723007
 Cl      4.24545648      3.58175643      7.78436294
 Cl      5.72713698      4.36536030      3.34908958
 Cl      7.36322296      9.13425303      9.49283833
 Cl     10.41742739     -1.15518949      7.05324778
 Cl      0.35634770      0.33109437      5.64100002
