#B3LYP/6-31+G(d) OPT FREQ

62, Energy =    -96.26347859 au

0 1
  N      2.69375473      7.89836859      5.13995972
  C      3.84997415      7.36276628      5.51640355
  N      4.68931515      8.34207632      5.83375118
  C      4.04922239      9.53336245      5.65983245
  C      2.79039926      9.25273402      5.22572270
  C      1.50766005      7.17354665      4.76319374
  C      0.66893959      6.85250844      5.99589741
  C      6.04210747      8.18319141      6.28216742
  H      4.09814817      6.29992407      5.48729944
  H      4.52542737     10.46354344      5.89207729
  H      1.98169913      9.88147302      4.90455805
  H      0.94658636      7.81262790      4.07099625
  H      1.81644334      6.25187342      4.26864574
  H     -0.22427331      6.31194983      5.69677999
  H      0.36766803      7.76960002      6.49675724
  H      1.23652345      6.23644441      6.69091132
  H      6.20772701      8.81767838      7.16004312
  H      6.73351348      8.49564948      5.49792013
  H      6.21581955      7.13743354      6.52211659
  N      4.06931376      8.96629217      2.06702055
  C      5.30120067      8.58378788      2.39904318
  N      5.30502133      7.27005733      2.60822396
  C      4.05459443      6.79286442      2.34059703
  C      3.28075627      7.85486943      2.00025983
  C      3.63702976     10.29817895      1.72754872
  C      3.78976586     10.52868060      0.22724407
  C      6.43501365      6.45311237      2.93793745
  H      6.12677140      9.24292436      2.56479446
  H      3.83026963      5.75224578      2.45256533
  H      2.23898942      7.93676607      1.76630360
  H      2.59178920     10.39200009      2.04215457
  H      4.25322487     11.00810578      2.28396275
  H      3.63560099     11.57784712     -0.00964743
  H      3.06287968      9.93367969     -0.31974089
  H      4.78898960     10.22795623     -0.08296289
  H      6.87923415      6.06269956      2.02097894
  H      6.09753392      5.63131661      3.57613832
  H      7.18371565      7.05081062      3.45263757
  N      9.60024679      9.68221809     11.16153453
  C      8.93941476      9.86149050     10.02331465
  N      9.76391171      9.63512053      9.00720403
  C     10.98607774      9.29820994      9.51646154
  C     10.88076240      9.32550737     10.87279564
  C      9.06729841      9.79492004     12.49785404
  C      8.08759500      8.66181716     12.77852505
  C      9.39646661      9.74376841      7.62303823
  H      7.90613182     10.15544259      9.87502728
  H     11.82235350      9.06844816      8.88916086
  H     11.58672271      9.16501516     11.67790170
  H      9.92489607      9.74639020     13.18291895
  H      8.56424178     10.76001915     12.59477911
  H      7.69449183      8.76374871     13.78571608
  H      8.59521688      7.70355208     12.70335784
  H      7.25950435      8.68201686     12.07260420
  H      9.44182524      8.76708176      7.14057100
  H     10.06871075     10.42890364      7.10713991
  H      8.37062433     10.12425125      7.58218260
 Cl      4.70568888      4.37811479      4.98001128
 Cl      6.74643165      8.61720197      0.17725579
 Cl     12.10450807      9.38517841     13.81434729
 Cl      6.31537391     10.68849071      8.48240649
 Cl      0.47656855      9.75159646      2.92985692

