#B3LYP/6-31+G(d) OPT FREQ

62, Energy =    -96.28730660 au

0 1
  N      3.99932255      4.45468983      2.74830097
  C      4.43146032      5.04051366      1.63730059
  N      5.58760943      4.49162821      1.28160396
  C      5.90071090      3.52250791      2.18424915
  C      4.90044535      3.50038244      3.10779709
  C      2.79322066      4.79848810      3.45486855
  C      1.67704135      3.80523941      3.14882116
  C      6.40641280      4.87564234      0.16982014
  H      3.96775565      5.90924661      1.19199445
  H      6.83538678      3.00026784      2.12956022
  H      4.78075691      2.92231899      4.00067097
  H      3.02566798      4.79456139      4.52690992
  H      2.51105571      5.80249525      3.13559758
  H      0.78372829      4.08248744      3.70072776
  H      1.96783419      2.80089977      3.44818186
  H      1.44379077      3.80324782      2.08539761
  H      7.45322425      4.79117247      0.48888761
  H      6.17017261      5.89664500     -0.11900179
  H      6.24061331      4.20857470     -0.67778138
  N      3.86993458      8.47942950      5.15479491
  C      4.43902997      7.71829692      6.08468505
  N      5.68009232      8.14479337      6.28985934
  C      5.91282061      9.21112749      5.47977995
  C      4.77442185      9.42034368      4.76362154
  C      2.52966854      8.34171401      4.64715712
  C      1.64130951      9.48508081      5.12598930
  C      6.63758714      7.55335714      7.17784497
  H      4.02812268      6.80853241      6.50007429
  H      6.88729331      9.66047422      5.43199971
  H      4.55392805     10.12940412      3.99364003
  H      2.58805255      8.32912673      3.55064289
  H      2.14075249      7.38543777      4.99919828
  H      0.63728541      9.35300910      4.73346881
  H      2.02370057     10.44053229      4.77563732
  H      1.59191878      9.50506671      6.21370753
  H      6.61119861      8.04634740      8.15114023
  H      7.63069325      7.69141047      6.73768186
  H      6.40279138      6.49859635      7.30139890
  N      7.53886353      7.21780762      2.82611363
  C      8.40891273      6.52245040      3.54604251
  N      7.74807415      5.76286340      4.40746510
  C      6.41379037      5.98651522      4.24659306
  C      6.28077514      6.90669665      3.25622073
  C      7.84655362      8.20834324      1.82632495
  C      9.06457833      7.81057908      1.00164599
  C      8.34180883      4.81544663      5.30257009
  H      9.47213624      6.54507175      3.43983570
  H      5.68104093      5.49369685      4.85881637
  H      5.40734684      7.34947401      2.81497561
  H      6.95851664      8.31737904      1.19894468
  H      8.03081550      9.15955136      2.33870737
  H      9.08431747      8.36616948      0.06769794
  H      9.03924832      6.74541214      0.78408960
  H      9.97862392      8.02358291      1.54906616
  H      7.55758785      4.34739602      5.89306474
  H      9.05302892      5.32037973      5.95701634
  H      8.86554610      4.05855989      4.71517379
 Cl      9.06038468      8.66972166      5.23862385
 Cl      9.04981516      4.19766302      1.90259065
 Cl     10.52237666    -22.01078544     32.54048256
 Cl      3.49144183      8.04882303      1.48814055
 Cl      4.19753478      4.60833785      6.49665168

