#B3LYP/6-31+G(d) OPT FREQ

62, Energy =    -96.23818611 au

0 1
  N      1.26961602      7.39056662      7.57385747
  C      1.49143012      6.58144197      8.62293103
  N      1.90687937      5.39230513      8.17146954
  C      1.98976248      5.45398421      6.81335605
  C      1.60250079      6.69719258      6.43650390
  C      0.96951491      8.79756136      7.64005348
  C      2.25154634      9.62020797      7.54453758
  C      2.31527759      4.27958349      8.97652522
  H      1.31579593      6.83428742      9.64596939
  H      2.34620846      4.61675030      6.24422635
  H      1.52980406      7.13931958      5.46496935
  H      0.28254365      9.04602316      6.82473009
  H      0.47530798      8.99260801      8.59407983
  H      2.03941727     10.67063494      7.71903341
  H      2.70733053      9.50832480      6.56362155
  H      2.95406648      9.26681396      8.29698135
  H      3.01464007      4.63066590      9.73589310
  H      2.80637404      3.55541138      8.32612842
  H      1.45412282      3.81834324      9.46356473
  N      6.59175463      0.85421279      9.11335287
  C      5.58567748      0.72874080      8.23440624
  N      4.46041094      0.42649114      8.90647094
  C      4.77266207      0.35328262     10.23455461
  C      6.09867685      0.61674675     10.36105762
  C      7.97224459      1.18892892      8.85896640
  C      8.17276624      1.89259278      7.52799904
  C      3.16963235      0.24627805      8.30973751
  H      5.61615499      0.92210940      7.18322592
  H      4.03874358      0.12604808     10.97939121
  H      6.72248897      0.73278880     11.22789921
  H      8.29460533      1.82039365      9.69943036
  H      8.56638537      0.26810247      8.88806369
  H      9.20180016      2.23339260      7.45881592
  H      7.51670489      2.75497974      7.45079528
  H      7.97661582      1.22611034      6.69064778
  H      3.06888977      0.96136749      7.48810338
  H      2.39510376      0.42905317      9.05128188
  H      3.05936302     -0.76705267      7.91680631
  N      6.57826930      5.34328002     10.32341936
  C      6.35407398      6.13484102      9.28126492
  N      5.80990124      5.41892493      8.30262313
  C      5.65559563      4.14015957      8.74553167
  C      6.13390128      4.09305825     10.01721935
  C      7.11707780      5.71904315     11.60634323
  C      5.98937101      6.13778818     12.54407043
  C      5.35961176      5.91605696      7.03627341
  H      6.58325185      7.17949333      9.22963832
  H      5.19220846      3.40084696      8.11964336
  H      6.27582336      3.28630649     10.71062149
  H      7.64633635      4.84419347     11.99852667
  H      7.81884305      6.54342880     11.46148307
  H      6.40077282      6.55056245     13.46049881
  H      5.37226677      5.27866257     12.79404563
  H      5.36339010      6.88741970     12.06409410
  H      4.62689059      6.70470390      7.21495240
  H      4.89784783      5.09493164      6.49023827
  H      6.19360493      6.32099939      6.46198192
 Cl      8.20461465      2.49525548     11.89737590
 Cl    -21.66286022     33.50940942      5.63001297
 Cl      3.87531163      7.42094548      9.68191889
 Cl     19.81106371    -30.18844562    -13.69846105
 Cl      3.89620215      2.73041184      6.26088958

