#B3LYP/6-31+G(d) OPT FREQ

62, Energy =    -96.25732007 au

0 1
  N      7.36394143      1.97194404      5.58160954
  C      8.62920569      1.87399000      6.00032260
  N      8.89285029      0.59830430      6.27868065
  C      7.77974936     -0.14101732      6.02304288
  C      6.82041369      0.71757607      5.58573414
  C      6.72779300      3.19970014      5.17855643
  C      6.69949630      3.33181800      3.65871679
  C     10.11982303      0.06143698      6.79042175
  H      9.26699064      2.72981356      6.14807658
  H      7.76484002     -1.19148304      6.26458619
  H      5.80872169      0.53471668      5.28911483
  H      5.71157034      3.21611170      5.57926652
  H      7.31249053      4.01473535      5.61637840
  H      6.19892159      4.25455382      3.38070486
  H      6.16931789      2.49672632      3.20487746
  H      7.71375794      3.35844800      3.26939939
  H      9.87759162     -0.88013602      7.29984183
  H     10.57152724      0.76596530      7.48478742
  H     10.81793124     -0.14111183      5.97677153
  N      7.72307853      7.59423114      4.01806637
  C      7.42813521      8.05079197      2.80419048
  N      8.05558883      7.30683987      1.90131305
  C      8.76735831      6.34432140      2.55819033
  C      8.55987564      6.52410739      3.88977509
  C      7.23649117      8.14018405      5.26253874
  C      6.48618776      7.08792916      6.06986823
  C      7.97135429      7.52295274      0.48442697
  H      6.80824176      8.90294684      2.50646774
  H      9.36306238      5.61900652      2.04356774
  H      8.92766420      5.97440457      4.74194931
  H      8.09050401      8.49985380      5.84384386
  H      6.59103178      8.98544129      5.01461475
  H      6.06165165      7.54452482      6.95871097
  H      7.16894856      6.30126360      6.38121515
  H      5.68132867      6.65511985      5.48072107
  H      7.51275291      6.66332970     -0.00446843
  H      8.96488704      7.68449170      0.06704568
  H      7.35098948      8.41455997      0.32801531
  N      6.79918167      2.55841087      8.86929546
  C      5.84529575      1.62671449      8.74130454
  N      6.40532556      0.42045975      8.88018325
  C      7.71482550      0.59207252      9.23272397
  C      7.96281261      1.92335341      9.22501469
  C      6.61485090      3.98776237      8.83223272
  C      6.47342036      4.54933989     10.24310172
  C      5.72588304     -0.84054552      8.85315047
  H      4.87600436      1.80605012      8.32610344
  H      8.34702931     -0.25482165      9.40741351
  H      8.85768114      2.47505574      9.42287691
  H      7.47149234      4.42872084      8.31403641
  H      5.70650076      4.19351429      8.26205184
  H      6.20746315      5.60182006     10.20101162
  H      7.40521656      4.44233709     10.79265705
  H      5.69455704      3.99790873     10.76517806
  H      5.22238203     -1.00300573      9.80787175
  H      6.46454311     -1.62388681      8.67436579
  H      4.98035706     -0.84334233      8.05954563
 Cl      6.07080987     10.16176597      1.05662458
 Cl      9.24833781      4.92324922      6.67012192
 Cl     -0.15087227    -10.57505263    -23.61727693
 Cl      4.49058756      1.76642738     10.80974649
 Cl      8.54570944     -2.55994296      7.93542028

