#B3LYP/6-31+G(d) OPT FREQ

62, Energy =    -96.25027299 au

0 1
  N      3.83103204      1.14892276      4.09362319
  C      2.90131598      1.59809191      4.93022287
  N      3.02874504      2.91481438      5.04344011
  C      4.06371975      3.32135313      4.25773303
  C      4.56791065      2.21114191      3.65548939
  C      3.95739742     -0.22890269      3.68603516
  C      3.49677415     -0.40611000      2.24361897
  C      2.24295817      3.80040634      5.85309173
  H      2.19864999      0.92483874      5.42385661
  H      4.28846679      4.36606302      4.15005924
  H      5.38520227      2.10737709      2.97215017
  H      5.00083984     -0.53559946      3.79421554
  H      3.31959461     -0.81490031      4.35960288
  H      3.60190620     -1.44782700      1.95457891
  H      4.08395959      0.20922822      1.56413038
  H      2.44909516     -0.12968067      2.15550245
  H      2.24684298      4.78368954      5.37047149
  H      2.68332602      3.89212753      6.84707279
  H      1.22877137      3.41962913      5.94548205
  N      7.24433309      7.29757040      2.84526572
  C      8.48311105      7.39478270      2.36816112
  N      8.82868480      8.67769163      2.34587744
  C      7.79135768      9.42329081      2.81478856
  C      6.79413088      8.55278511      3.13260127
  C      6.53412077      6.05951194      3.06313489
  C      7.30876117      5.17366423      4.03267958
  C     10.08093047      9.22208290      1.90165726
  H      9.10042281      6.54065181      2.08125216
  H      7.88641461     10.49548846      2.88792795
  H      5.81300486      8.72154986      3.52687167
  H      5.53763727      6.30352608      3.44062132
  H      6.43250045      5.54114390      2.10585553
  H      6.73998999      4.27402009      4.24905733
  H      7.49555099      5.70240503      4.96505491
  H      8.25966241      4.88756969      3.58478759
  H     10.90493366      8.71915766      2.40523305
  H     10.08203067     10.29404266      2.13434065
  H     10.19099087      9.08184932      0.82602989
  N      0.05819696      5.09240064      2.63829654
  C      0.26331952      6.40636858      2.72097850
  N     -0.08052205      6.82304553      3.93719030
  C     -0.59727955      5.76127921      4.62002833
  C     -0.50956683      4.67707843      3.81078079
  C      0.38159769      4.26963810      1.50483571
  C      1.71757971      3.56436198      1.72748983
  C      0.03141870      8.17910246      4.38070443
  H      0.79755208      6.99376893      2.00443153
  H     -0.97705040      5.85716352      5.61650759
  H     -0.80282057      3.65973849      3.96951498
  H     -0.42462571      3.54581997      1.35477694
  H      0.42773969      4.92410393      0.63255974
  H      2.07459749      3.12369865      0.80099956
  H      1.61202925      2.77800151      2.47213463
  H      2.44992187      4.28549716      2.08429600
  H      1.08728766      8.45318849      4.43070567
  H     -0.42148597      8.28201268      5.36443853
  H     -0.48017572      8.82415293      3.66422071
 Cl      9.29985716     12.33570529      2.73494653
 Cl      1.51253190     -1.01153007      5.85344259
 Cl      3.01706328      6.34709566      3.86711995
 Cl     10.01791225      4.66678701      1.85593130
 Cl     -1.76698002      7.22668393      1.47721192

