#B3LYP/6-31+G(d) OPT FREQ

62, Energy =    -96.24819822 au

0 1
  N      7.08462922      2.57213341      5.15499369
  C      7.35057818      1.61599991      4.27458641
  N      8.52892357      1.84547088      3.71915735
  C      9.05305561      2.96969215      4.27326013
  C      8.14782959      3.42893437      5.17579336
  C      5.92151303      2.64132870      6.00051257
  C      6.22895992      2.05714836      7.37635016
  C      9.13840848      1.04567507      2.70049503
  H      6.69293316      0.81227268      4.01586965
  H     10.00461493      3.35304177      3.95451526
  H      8.16816774      4.29148860      5.80945880
  H      5.60665663      3.68628688      6.07523404
  H      5.12555167      2.07106094      5.51845790
  H      5.31443150      1.94119059      7.95022090
  H      6.91127180      2.70122399      7.92602204
  H      6.69933833      1.08411264      7.25214775
  H      9.38977133      0.06796887      3.11370846
  H     10.03092634      1.56001536      2.34677929
  H      8.43362252      0.91921457      1.87918533
  N     11.08656011      2.06019448      6.56713042
  C     11.28146444      1.09960974      5.63470307
  N     12.20893813      1.53908144      4.75745168
  C     12.60806725      2.78216917      5.14954892
  C     11.91971407      3.10516360      6.27313226
  C     10.18674844      1.94042975      7.68026007
  C     10.90184695      1.40503852      8.91912951
  C     12.65917108      0.86636695      3.57589845
  H     10.66911930      0.22220730      5.55907345
  H     13.31895466      3.34845586      4.58447490
  H     11.95292581      3.99269358      6.87059509
  H      9.75740840      2.92406193      7.88792826
  H      9.39513168      1.24673928      7.37551525
  H     10.19871087      1.32924203      9.74343291
  H     11.71953055      2.06156582      9.21295125
  H     11.30148188      0.41498440      8.71640365
  H     13.72647646      0.64550406      3.64376775
  H     12.48438003      1.52149235      2.71682015
  H     12.10385739     -0.05945865      3.45246441
  N      8.05921154      5.77083737      1.32015364
  C      8.56347212      4.54156464      1.20661185
  N      8.62660754      4.21754256     -0.08065740
  C      8.05648093      5.22688738     -0.80397291
  C      7.70085020      6.19874595      0.07402796
  C      7.81912024      6.41446517      2.58405891
  C      9.12968181      6.86069121      3.22330700
  C      9.15497387      2.97829575     -0.57059034
  H      9.04775266      3.98812449      1.98532858
  H      7.95044027      5.18017781     -1.86814839
  H      7.22692419      7.14429559     -0.09121266
  H      7.15728488      7.26714834      2.41718072
  H      7.30744129      5.68209929      3.21686666
  H      8.94495040      7.25286500      4.21938893
  H      9.60101772      7.63737810      2.62479152
  H      9.81566090      6.02133024      3.29761172
  H     10.06587214      2.75234408     -0.01313475
  H      9.37801832      3.06443648     -1.63188412
  H      8.43007247      2.17834796     -0.41052877
 Cl      8.40205396     -0.31844348      5.95234095
 Cl    -74.31016614     55.91078144     59.52960958
 Cl      8.82940102     26.22716524    -28.24277588
 Cl     11.46492631      3.56223802      2.04097823
 Cl      6.46199596      3.35179593      2.03712574

