#B3LYP/6-31+G(d) OPT FREQ

62, Energy =    -96.26794018 au

0 1
  N      5.73667634      4.71267148      7.12153097
  C      4.42904511      4.47441403      7.13667782
  N      4.22363360      3.16577502      7.02672645
  C      5.43159330      2.54654963      6.94117185
  C      6.38302801      3.52172776      7.00346347
  C      6.35852340      6.00538070      7.28915797
  C      6.71888913      6.23950229      8.75077482
  C      2.94332095      2.51850178      7.03371115
  H      3.64029196      5.20958667      7.10605125
  H      5.48830841      1.48201814      6.80923984
  H      7.44902057      3.47398271      6.92571040
  H      7.24563422      6.02780347      6.64972650
  H      5.64929397      6.75846189      6.94416740
  H      7.06727951      7.25929866      8.90330683
  H      7.50452227      5.55771230      9.06646425
  H      5.84879097      6.08428196      9.38870200
  H      3.03341907      1.56589647      6.50266436
  H      2.20943015      3.16765159      6.56172678
  H      2.63289702      2.31487017      8.06007430
  N      5.19427953      2.21377050      3.64132163
  C      5.61927886      3.46996543      3.70391010
  N      4.56789939      4.27443369      3.83215231
  C      3.43985588      3.51279144      3.84270865
  C      3.83403951      2.21533079      3.72393937
  C      5.99542877      1.01655571      3.55379383
  C      7.47898678      1.30020478      3.69620437
  C      4.64067697      5.70390251      3.94146199
  H      6.64048436      3.83532812      3.77537482
  H      2.46805449      3.94607213      3.95982359
  H      3.27797222      1.30128094      3.75626499
  H      5.63391368      0.34774636      4.34935246
  H      5.78826521      0.53389554      2.59242460
  H      8.02191355      0.35930124      3.71444179
  H      7.68139128      1.83536576      4.61932577
  H      7.85017326      1.89899848      2.86728382
  H      5.64011007      5.96874218      4.28686016
  H      3.87526876      6.05036699      4.63787264
  H      4.46554848      6.16743568      2.96880724
  N      2.79522505      7.24235323      9.40988164
  C      3.25968890      7.83782998      8.30570062
  N      4.18009373      8.73412768      8.65344178
  C      4.31007624      8.72143875     10.00767076
  C      3.44553095      7.78577199     10.48368246
  C      1.80909436      6.18906825      9.43218616
  C      2.34933630      4.93477199     10.11064675
  C      4.94448126      9.58270011      7.78780421
  H      2.92538653      7.58591908      7.31165768
  H      5.09252893      9.29622048     10.47641373
  H      3.24852034      7.47814373     11.48895562
  H      0.91749563      6.54420517      9.95924506
  H      1.54531103      5.97626652      8.39152530
  H      1.61381332      4.13918745     10.03516018
  H      2.55837626      5.11293073     11.16313914
  H      3.26569773      4.60771865      9.62533532
  H      5.03139980      9.13713824      6.80003000
  H      5.93365687      9.70950722      8.25510866
  H      4.47182675     10.56207383      7.70171751
 Cl      1.87012298      6.05902706      6.01483939
 Cl      7.28593979      9.59785861      9.98906319
 Cl      4.04741206     -0.31638320      5.78090434
 Cl      8.10003322      5.04656125      4.64392729
 Cl     -1.02548540    -15.55096241     35.81654099

