62
Energy =    -96.27090134 au
  N      8.87720354      8.37859942      8.74865402
  C      8.89736496      7.39944024      7.84753553
  N      8.55106062      7.89566929      6.66526573
  C      8.29559460      9.22670522      6.82041337
  C      8.50307167      9.53041865      8.13123152
  C      9.20975560      8.27092222     10.14987701
  C     10.54037961      7.55700460     10.34574496
  C      8.47363592      7.15406026      5.43998139
  H      9.16535350      6.36265700      8.02344736
  H      7.97914475      9.83935985      6.00237974
  H      8.46106659     10.45361512      8.69022185
  H      9.24689900      9.29674864     10.54149318
  H      8.41263375      7.72094787     10.65969616
  H     10.77558077      7.51775362     11.40582133
  H     11.33397348      8.09899000      9.83666032
  H     10.50190916      6.54125514      9.95901967
  H      8.89176997      6.16400363      5.60269777
  H      9.03633980      7.66706757      4.66052525
  H      7.42889406      7.06152614      5.10890241
  N      7.24769482      3.03060100      5.16382315
  C      7.24794547      3.87348862      6.19243476
  N      6.01735523      4.33791578      6.36490750
  C      5.21120352      3.78657453      5.41650235
  C      5.98461325      2.95464842      4.66644179
  C      8.39099791      2.31428723      4.65195613
  C      8.98106764      1.40047199      5.71867622
  C      5.62669384      5.33146387      7.32098979
  H      8.10129484      4.10511545      6.82465657
  H      4.17677722      4.04543549      5.33124287
  H      5.76890323      2.32881181      3.81926922
  H      8.05137272      1.74895303      3.77885767
  H      9.14329582      3.04146783      4.33387929
  H      9.82498504      0.85499273      5.30591973
  H      8.23690052      0.68349659      6.05830128
  H      9.32527228      1.98390726      6.56943825
  H      6.45192222      5.51132400      8.00576935
  H      4.74727917      5.00007472      7.87242111
  H      5.38196365      6.24684688      6.77216453
  N      4.44997995      4.29170169      1.94650249
  C      4.06274147      3.06709606      1.60769791
  N      2.73688590      3.00048578      1.67554093
  C      2.26102912      4.21583624      2.06218825
  C      3.34043520      5.02917939      2.23042045
  C      5.80924623      4.77062949      1.93474766
  C      6.08928272      5.54191120      0.64868705
  C      1.91705594      1.85263584      1.41010351
  H      4.74859418      2.25896592      1.39561990
  H      1.19888196      4.38124214      2.12952798
  H      3.41538653      6.04340123      2.56527164
  H      5.94354357      5.42554612      2.80161994
  H      6.46640914      3.90183947      2.00454549
  H      7.11600869      5.89607677      0.65646137
  H      5.42709977      6.40118836      0.56922691
  H      5.94587918      4.90139293     -0.21973392
  H      2.25850600      1.34939038      0.50731439
  H      0.88147375      2.20087875      1.28937708
  H      1.96760913      1.15321366      2.24536940
 Cl     -0.88913456      3.51302495      1.32626486
 Cl      9.05692236     11.58224968     10.57101784
 Cl      9.71486724      4.30058011      8.19170722
 Cl      6.64113754      1.20671290      1.90199347
 Cl      5.31642380      6.91533928      4.50241101
