#B3LYP/6-31+G(d) OPT FREQ

62, Energy =    -96.24469865 au

0 1
  N      6.10839420      3.20710865      3.41110863
  C      6.07771421      4.51793298      3.67288541
  N      5.49724815      4.70520333      4.86207119
  C      5.05629390      3.49227364      5.31334064
  C      5.44394160      2.55552649      4.41310312
  C      6.65588652      2.61132007      2.22046259
  C      8.15105003      2.35706445      2.37042613
  C      5.16400265      5.98425172      5.42031228
  H      6.66396110      5.24821836      3.14843184
  H      4.51041508      3.39104916      6.22903252
  H      5.29104151      1.49625123      4.40314395
  H      6.11757457      1.67933744      2.02710315
  H      6.47092179      3.30124569      1.39446763
  H      8.54584697      1.92130174      1.45715623
  H      8.34689163      1.67667869      3.19708090
  H      8.66544214      3.29664512      2.55628535
  H      6.05604164      6.51124924      5.77294081
  H      4.48284242      5.84501679      6.25731987
  H      4.66928339      6.57432016      4.64718054
  N     10.56158462      6.77790684      5.87886976
  C      9.43491235      6.06680230      5.87994407
  N      9.45787785      5.21836257      6.91280990
  C     10.59071911      5.46525472      7.63627976
  C     11.28056024      6.43711214      6.98893276
  C     10.88636793      7.79857286      4.91611698
  C     10.42430483      9.16745404      5.40556636
  C      8.35387335      4.38561211      7.28675203
  H      8.73276835      6.05138035      5.06815115
  H     10.81588617      4.93991136      8.54212817
  H     12.21718500      6.89660029      7.22927114
  H     11.96678087      7.78739189      4.74690394
  H     10.37762811      7.52726330      3.98665820
  H     10.49932842      9.89703516      4.60453672
  H     11.03067893      9.50381735      6.24468010
  H      9.39112507      9.09828380      5.73642827
  H      7.50908892      5.03211319      7.53934413
  H      8.62428365      3.77829240      8.14838119
  H      8.07109282      3.74042442      6.45371052
  N      5.94320158      8.80247196      3.31915342
  C      6.76894048      7.95028177      2.68226627
  N      6.20266387      7.58396226      1.52369949
  C      4.99778848      8.20668558      1.42192995
  C      4.83826308      8.97459915      2.52985756
  C      6.22769416      9.50616860      4.54212966
  C      7.02398165     10.77893709      4.26154033
  C      6.72969631      6.62293008      0.60002552
  H      7.70095412      7.56531608      3.05257811
  H      4.33930599      8.03728852      0.59585979
  H      4.02394165      9.60528299      2.82174873
  H      5.27869428      9.75492929      5.02222948
  H      6.79236786      8.85064825      5.21288649
  H      7.25174036     11.27866668      5.19845874
  H      6.45874898     11.45986874      3.62714056
  H      7.95864231     10.53208248      3.76410722
  H      6.89385343      7.08053844     -0.37703283
  H      6.01090617      5.80648174      0.50806519
  H      7.67080776      6.24069052      0.99471687
 Cl      7.65708191      7.65095448      7.00816329
 Cl    -55.73670143     43.70641147     45.16296711
 Cl      9.16081551      5.70846392      2.80675327
 Cl     21.94505809    -14.30317543    -16.84437987
 Cl      4.18991436      5.25577538      2.20887366

