62
Energy =    -96.26199830 au
  N      6.85118748      2.97203312      4.67009189
  C      7.62678704      2.97304226      5.75052156
  N      8.72303754      3.67269880      5.48404117
  C      8.65207615      4.13296344      4.20192712
  C      7.46957842      3.69390371      3.69291453
  C      5.54351216      2.37929148      4.54011155
  C      4.49823678      3.22101433      5.26596544
  C      9.79406211      3.88639919      6.41451753
  H      7.45964791      2.49158738      6.70957226
  H      9.41482943      4.75663135      3.76536597
  H      7.01360820      3.78635119      2.72324020
  H      5.31844790      2.33607205      3.46882948
  H      5.57080405      1.37072617      4.95964896
  H      3.52990336      2.73127967      5.20401362
  H      4.42166898      4.20382708      4.80589121
  H      4.76373291      3.33664524      6.31517611
  H      9.93362368      4.95416586      6.58079480
  H     10.72110021      3.47363529      6.01710401
  H      9.53251709      3.38544249      7.35072593
  N      1.65157873      5.89904977      0.64770899
  C      1.02829676      6.17265852      1.78954935
  N      1.43624450      5.32224788      2.72172729
  C      2.32520087      4.45771133      2.15157259
  C      2.45945706      4.81760691      0.85268259
  C      1.46988903      6.63990342     -0.56955865
  C      2.37988437      7.86562589     -0.58866149
  C      1.01630969      5.36642232      4.09006802
  H      0.36967015      6.99796046      1.95522370
  H      2.80845600      3.66983111      2.68920082
  H      3.07643523      4.38948242      0.09167422
  H      1.68510066      5.97840372     -1.41259276
  H      0.41717253      6.93119672     -0.61128405
  H      2.09971551      8.53635489     -1.39710353
  H      3.41816521      7.56736914     -0.71701870
  H      2.29898779      8.39430109      0.35846111
  H      1.33022793      6.32128318      4.51832015
  H      1.47363056      4.54675059      4.63979899
  H     -0.07089791      5.28775912      4.13540125
  N      7.25976080      6.16825075      1.01265904
  C      7.33790757      6.59420109      2.26845111
  N      6.11641684      6.88945027      2.69869306
  C      5.23273895      6.64501722      1.69458040
  C      5.95230200      6.19092790      0.63326763
  C      8.39981118      5.74918274      0.23036459
  C      8.12453939      4.44254352     -0.50324198
  C      5.75173195      7.35856082      4.00490510
  H      8.27430533      6.68776697      2.80267151
  H      4.18651728      6.84610643      1.82766254
  H      5.62899466      5.85695652     -0.32890206
  H      8.64824691      6.54634066     -0.48056211
  H      9.23417701      5.64967984      0.93068031
  H      9.05910699      3.93867434     -0.73097520
  H      7.58952948      4.61621136     -1.43510859
  H      7.51392699      3.78876986      0.11702058
  H      5.75068230      6.53108119      4.71602028
  H      4.74438258      7.78339441      3.94297334
  H      6.46120186      8.11166542      4.34312395
 Cl     10.49171903      6.56414704      2.87962999
 Cl      8.13845445      1.99117610      8.70364642
 Cl     -1.34477719      5.22706788      1.08260260
 Cl      2.66913283      8.27030546      3.05986458
 Cl      5.39956432      3.15853272      1.21048559
