#B3LYP/6-31+G(d) OPT FREQ

62, Energy =    -96.27225650 au

0 1
  N      5.72861783      4.41679244      2.59058234
  C      6.16252873      4.15766758      1.35858635
  N      5.13430696      4.20769973      0.51555502
  C      4.02978982      4.59200921      1.22115360
  C      4.39928025      4.71849336      2.52175110
  C      6.53740591      4.43688783      3.78308623
  C      7.26318474      5.77191497      3.91475207
  C      5.19592434      4.04440982     -0.90706420
  H      7.15405712      3.83586839      1.11770418
  H      3.08479263      4.73334561      0.73925237
  H      3.82705589      4.95524540      3.39828800
  H      5.87203514      4.26895942      4.63244996
  H      7.24963389      3.60985120      3.72008694
  H      8.03557236      5.70689745      4.67598026
  H      6.56222273      6.55806384      4.18597433
  H      7.71510915      6.03554116      2.96086835
  H      6.05658161      3.43021679     -1.16210605
  H      5.32411431      5.02167121     -1.37576827
  H      4.27999541      3.56852855     -1.26509924
  N      2.47670305      2.14358347      2.56662572
  C      2.87749914      1.73454393      1.36767126
  N      4.11016443      1.25124916      1.47398006
  C      4.50963410      1.34697922      2.77263243
  C      3.47890394      1.90928172      3.45968376
  C      1.20652941      2.73663886      2.89506199
  C      0.18349017      1.66057982      3.24429376
  C      4.87942822      0.72397322      0.38370113
  H      2.36320601      1.82579357      0.41671081
  H      5.49898128      1.05283131      3.08750983
  H      3.38657853      2.21506895      4.48239277
  H      1.37217787      3.39638081      3.75473385
  H      0.86501961      3.31964935      2.03799372
  H     -0.76538525      2.12599963      3.49511841
  H      0.52377176      1.08661602      4.10289741
  H      0.03405508      0.98611602      2.40258184
  H      5.89855950      1.10210281      0.44093495
  H      4.40046253      1.02634423     -0.54965448
  H      4.91240269     -0.36544860      0.43963777
  N      5.43339184      2.80990684      8.22247144
  C      6.61000380      2.21486615      8.37984487
  N      6.99994408      1.72864356      7.20486600
  C      6.04718466      2.02395917      6.27622587
  C      5.06024219      2.70747157      6.91520541
  C      4.70153984      3.47764004      9.27089300
  C      4.47763087      4.94298830      8.91804889
  C      8.21266666      1.01620298      6.91762467
  H      7.10953391      2.14192501      9.34276440
  H      6.17587476      1.73476644      5.25027398
  H      4.15134376      3.14424507      6.53625202
  H      3.73645296      2.97724373      9.39520514
  H      5.28793666      3.36597451     10.18883624
  H      3.94271027      5.43574787      9.72515782
  H      3.89111279      5.03143534      8.00630509
  H      5.43075875      5.44632150      8.77386844
  H      8.28613061      0.90099239      5.83315878
  H      8.19615485      0.03210326      7.38760919
  H      9.07234773      1.56954328      7.29331331
 Cl      7.29749902      6.36238865      0.46134962
 Cl      7.15126897      2.33682171     11.47408466
 Cl      2.49449075      4.32523916      5.55107967
 Cl      7.67072296      0.98249407      3.52494195
 Cl      2.46120323      2.01742717     -1.72687958

