62
Energy =    -96.26211931 au
  N      0.93608645      5.63136103      6.91076171
  C      1.55283249      5.77257596      8.07812936
  N      1.91375238      7.04001305      8.23660454
  C      1.47766219      7.74000685      7.15205719
  C      0.86783413      6.85886289      6.31952625
  C      0.38458864      4.40252495      6.40289420
  C     -1.07630172      4.27262641      6.82249310
  C      2.49013406      7.56932999      9.43588798
  H      1.78349933      4.97888083      8.75731126
  H      1.63457301      8.79245689      7.05306979
  H      0.40770726      7.00721302      5.36313081
  H      0.49212173      4.39766962      5.31573984
  H      0.97913939      3.58463737      6.81344130
  H     -1.43696065      3.26367131      6.63980451
  H     -1.69612151      4.97639878      6.27174934
  H     -1.16075388      4.50185931      7.88346771
  H      1.78034796      7.39525164     10.25002885
  H      2.66893533      8.63609002      9.31610079
  H      3.43058984      7.05972150      9.65561257
  N      3.94699001      5.67784109      2.83965665
  C      4.23231680      5.66578621      1.54021432
  N      5.44540242      5.14513889      1.38434552
  C      5.94941860      4.82721508      2.60944042
  C      5.00328415      5.15815175      3.52641813
  C      2.72293901      6.14011146      3.44658595
  C      1.50662579      5.58356695      2.71817897
  C      6.13695378      4.92064638      0.14645781
  H      3.57805331      6.02955267      0.74502761
  H      6.91174470      4.35727089      2.69682271
  H      4.97976248      5.06188631      4.59502307
  H      2.75676080      5.82530164      4.49238295
  H      2.70131939      7.23267675      3.41054138
  H      0.59333815      5.92385789      3.20110021
  H      1.52427571      4.49493686      2.72584458
  H      1.49562769      5.92839300      1.68433210
  H      5.43240436      4.59788877     -0.61804948
  H      6.89581042      4.15392422      0.31929866
  H      6.62460737      5.83832086     -0.18975248
  N      8.46813262      2.03000958      5.55485565
  C      8.55925292      2.15107965      6.87518359
  N      7.46108088      2.74532950      7.32541426
  C      6.64312090      3.01640963      6.26888097
  C      7.27796463      2.55925329      5.15482661
  C      9.43746197      1.40924474      4.68618241
  C      9.37666713     -0.10805178      4.82084492
  C      7.22040547      3.04665286      8.70770555
  H      9.34820647      1.79860539      7.53605381
  H      5.70062808      3.52062960      6.39010864
  H      7.00396376      2.58151019      4.11917134
  H      9.20878154      1.72363592      3.66080033
  H     10.43191185      1.76727333      4.96286253
  H     10.12980029     -0.56270836      4.18367797
  H      8.39917209     -0.47420425      4.51662020
  H      9.56083925     -0.40269172      5.85220502
  H      7.99690559      2.55344957      9.29865967
  H      6.23395426      2.68934639      8.99989087
  H      7.25897240      4.12463082      8.86834701
 Cl     10.06947904      1.23550431      9.46444345
 Cl     -0.48031794      6.06069271      9.81182733
 Cl      8.33125204      2.73956399      1.77280048
 Cl      2.13121811      6.79953889     -0.54226178
 Cl      3.93243850      5.04964189      6.73217792
