62
Energy =    -96.27949909 au
  N      4.19095802      4.94301923      0.48117142
  C      4.13839424      5.31848048     -0.78751553
  N      3.23139294      6.27485706     -0.92981312
  C      2.69121736      6.52356895      0.29437558
  C      3.28465693      5.68080150      1.17942931
  C      4.98305827      3.84769388      0.98071096
  C      6.38190865      3.82262467      0.37459362
  C      2.98004578      6.98939217     -2.14661215
  H      4.72396943      4.90394553     -1.58168630
  H      1.93560002      7.26529232      0.44983201
  H      3.11084043      5.57392817      2.23316680
  H      5.03825258      3.92752548      2.06741792
  H      4.44978034      2.93062384      0.71794440
  H      7.06765200      3.37977744      1.09141947
  H      6.70213021      4.83276214      0.13500614
  H      6.40605436      3.23218137     -0.53826900
  H      2.75940998      6.28617993     -2.95166696
  H      3.87341724      7.56528119     -2.40317873
  H      2.13699140      7.66276395     -2.00747975
  N      1.81120992      2.96229511      2.89167580
  C      2.49968070      2.07986231      2.17913751
  N      3.47231521      1.58082432      2.93812308
  C      3.38862850      2.15140322      4.17237758
  C      2.33960102      3.01792977      4.14457960
  C      0.70562803      3.74275629      2.40061184
  C     -0.62618856      3.09682295      2.77134336
  C      4.48144022      0.64677074      2.52926007
  H      2.33706679      1.91963443      1.11986240
  H      4.10033182      1.92365803      4.93975188
  H      1.97615666      3.71602634      4.87100664
  H      0.78476426      4.73807799      2.84764494
  H      0.81274068      3.81014707      1.31522738
  H     -1.44090613      3.71525662      2.40469998
  H     -0.71873914      3.00637500      3.85138456
  H     -0.71085388      2.10867047      2.32213497
  H      4.29437805     -0.33441200      2.96777520
  H      5.45638026      1.01817660      2.87270697
  H      4.47767183      0.56262820      1.44439062
  N      5.68591965      5.91557950      4.01196252
  C      6.84199405      5.65062370      3.41484625
  N      7.05278071      6.55288507      2.46210455
  C      6.00166762      7.41910912      2.45401056
  C      5.14400408      7.01920694      3.43304140
  C      5.13845403      5.18246691      5.12509825
  C      5.66938019      5.74452327      6.44170886
  C      8.18586401      6.63530062      1.58653010
  H      7.43014267      4.77273128      3.62209660
  H      5.92912218      8.19244532      1.71756086
  H      4.18392056      7.38941140      3.73224167
  H      4.04854318      5.27714678      5.07727392
  H      5.43922315      4.13781940      5.00994915
  H      5.20147702      5.22395965      7.26950819
  H      5.43818806      6.80358986      6.52337343
  H      6.74551709      5.60548397      6.50850528
  H      8.87577299      7.40931181      1.93067698
  H      7.82085825      6.90347021      0.58713437
  H      8.69884072      5.67657183      1.55825975
 Cl      6.87410230      2.50804448      3.86919000
 Cl     13.47934527     35.10688410     27.00396338
 Cl      2.15586849      2.96793762     -0.78820649
 Cl      2.02403497      6.19185731      4.33631598
 Cl      6.13554072      7.38184605     -0.85484535
