#B3LYP/6-31+G(d) OPT FREQ

62, Energy =    -96.25213204 au

0 1
  N      7.61789062      8.45532929      5.98960885
  C      8.42267050      7.55377350      6.53845167
  N      7.87964951      6.34924950      6.38406714
  C      6.70026132      6.49187487      5.71411706
  C      6.53229894      7.81778941      5.46648424
  C      7.87846707      9.87383157      5.95180487
  C      7.86708635     10.38632411      4.51710567
  C      8.41860295      5.09705677      6.83453965
  H      9.35863282      7.81659725      7.02760885
  H      6.09324925      5.63935112      5.48205246
  H      5.74434393      8.34276964      4.95093702
  H      7.10224325     10.38533117      6.52904700
  H      8.85011093     10.03111906      6.43085305
  H      8.09486726     11.44877089      4.50796970
  H      6.88859668     10.23493654      4.06656416
  H      8.61485560      9.86511631      3.92361785
  H      9.37831118      4.90314668      6.35525936
  H      7.71219466      4.30642334      6.57267794
  H      8.56626680      5.11682438      7.91426642
  N      3.00112296      3.86586774      7.85839458
  C      3.43649050      2.65426729      7.52124811
  N      2.78766135      2.24500122      6.43588739
  C      1.86001283      3.18929485      6.11361554
  C      1.99457831      4.20768596      7.00045932
  C      3.53227268      4.66229981      8.93241097
  C      4.71872610      5.48772236      8.44085128
  C      3.01700315      0.98566901      5.79749932
  H      4.27458040      2.15430755      7.95774971
  H      1.18614448      3.05621979      5.29143013
  H      1.45640097      5.12835268      7.10362166
  H      2.73476662      5.30323588      9.31786850
  H      3.83980661      3.97346528      9.72240388
  H      5.26307853      5.91141925      9.27978254
  H      4.38857054      6.29578778      7.79192629
  H      5.38260593      4.84522278      7.86780166
  H      4.04960896      0.95394342      5.44432221
  H      2.33554683      0.86707641      4.95786848
  H      2.85517256      0.19062309      6.52796403
  N      1.87188832      6.72772233      3.61284062
  C      0.69052384      6.17605240      3.87585145
  N     -0.23936300      6.74279643      3.11036824
  C      0.36385720      7.68387218      2.33654345
  C      1.69220792      7.67010604      2.65039291
  C      3.13576308      6.32681115      4.18585341
  C      3.69001841      5.11008224      3.45507422
  C     -1.64347198      6.44749693      3.10286368
  H      0.52027466      5.40113185      4.59690933
  H     -0.21159404      8.22736558      1.60730521
  H      2.51095727      8.28590801      2.33000416
  H      3.81130590      7.18604498      4.10436790
  H      2.97739423      6.08325355      5.23798034
  H      4.48845662      4.66074669      4.03880434
  H      4.07854420      5.38739107      2.47961702
  H      2.91250205      4.35843541      3.32316044
  H     -1.80393961      5.37427769      3.18860216
  H     -2.05895842      6.82732354      2.15280896
  H     -2.14153215      6.95395237      3.93043600
 Cl     -2.29444327      7.88722790      0.33121301
 Cl      2.11001137      1.25769201      9.20197762
 Cl     10.84790300      9.15123931      7.73554083
 Cl      5.68408233      3.26255640      5.81901521
 Cl      4.23978020      9.42427950      3.71524006

