62
Energy =    -96.29018816 au
  N      5.07240462      3.04586849      4.16683025
  C      5.29149307      2.70019714      2.90243202
  N      6.39099131      1.95815049      2.84486964
  C      6.88288712      1.81354193      4.10550844
  C      6.05123020      2.49616095      4.93887770
  C      3.99433541      3.86791694      4.65397530
  C      2.86555904      3.00752732      5.21308813
  C      6.98580145      1.45534766      1.64124110
  H      4.78420232      3.07331537      2.02096459
  H      7.80301560      1.29475485      4.28640715
  H      6.09623838      2.68507390      5.99114396
  H      4.41048270      4.51431060      5.43776530
  H      3.63668592      4.48188266      3.82458766
  H      2.07230766      3.64697044      5.59109139
  H      3.23180604      2.39249940      6.03346053
  H      2.45500000      2.35733015      4.44083777
  H      6.68098614      2.10003526      0.81737325
  H      6.65297602      0.43451369      1.44501883
  H      8.06991712      1.45993249      1.75872841
  N      9.55448045      4.86535611      5.74800752
  C     10.26967382      4.56656065      4.66861578
  N     10.53298250      5.68484617      4.00348911
  C      9.98216538      6.72831199      4.67768211
  C      9.36577709      6.21242459      5.77603408
  C      9.05327626      3.92752503      6.71828714
  C      9.91624557      3.92659724      7.97529973
  C     11.22325980      5.78248475      2.75119673
  H     10.49038897      3.56411325      4.32392211
  H     10.01415583      7.72160921      4.27955891
  H      8.76920746      6.68017640      6.53128885
  H      8.02592503      4.22846030      6.95642842
  H      9.04712776      2.94098513      6.25320637
  H      9.51634664      3.21360858      8.69045948
  H      9.91761451      4.91206294      8.43596278
  H     10.94169525      3.64695619      7.73955119
  H     10.70401724      6.53449086      2.14568518
  H     11.21282217      4.81281351      2.26011134
  H     12.25458613      6.10343760      2.90580110
  N      7.95307996      5.11441220      1.32152173
  C      7.15556172      6.16478561      1.43882331
  N      6.73167706      6.25351366      2.69238039
  C      7.28444658      5.23366321      3.40410923
  C      8.04848344      4.51422543      2.54092067
  C      8.57198787      4.63156962      0.11325765
  C      9.12175967      5.77473541     -0.73309941
  C      5.94009321      7.30962201      3.25043914
  H      6.87907117      6.82863750      0.64689573
  H      7.07899067      5.11378505      4.45079964
  H      8.65289588      3.64009459      2.69656449
  H      9.36647558      3.94506736      0.41416336
  H      7.81504195      4.07062494     -0.44742122
  H      9.90400841      5.40991313     -1.39443641
  H      9.53129063      6.55031321     -0.08943139
  H      8.33577429      6.21773408     -1.33909336
  H      6.49291401      8.24632067      3.16542184
  H      5.75579871      7.08670669      4.30000127
  H      4.99416720      7.39910056      2.71616392
 Cl      6.12161135      5.43177249      6.64750418
 Cl    -24.28836199     26.51483389     24.12339400
 Cl     10.09813848      1.79848094      3.10065039
 Cl      9.16189794      8.17980512      1.89989455
 Cl      5.18315517      4.13323426      0.19163638
