62
Energy =    -96.26082781 au
  N      5.11809687      4.11459993      4.75156807
  C      5.08403041      4.84876750      5.86118168
  N      3.86096353      5.34173962      6.00996323
  C      3.09192875      4.91431443      4.96995584
  C      3.88394971      4.14143067      4.17703882
  C      6.26430837      3.41793420      4.21521259
  C      6.91799848      2.53164263      5.26775872
  C      3.41000840      6.17489958      7.08601717
  H      5.90057416      4.99514465      6.55733387
  H      2.07914576      5.24707075      4.86224781
  H      3.69302314      3.58705868      3.27312198
  H      5.90495540      2.82512337      3.36528395
  H      6.98492726      4.15784174      3.85198553
  H      7.77313973      2.02413769      4.82790622
  H      6.21364136      1.78088690      5.61835761
  H      7.25979298      3.11747847      6.11835813
  H      2.85671097      5.57679038      7.81297462
  H      2.73771198      6.93455795      6.67263271
  H      4.26816077      6.62188016      7.58130418
  N      3.59329592      6.76243922      2.25765621
  C      4.22927941      6.01807609      1.35129692
  N      3.33515863      5.35170792      0.63482774
  C      2.09269563      5.71202359      1.06398221
  C      2.25346366      6.60148704      2.07940349
  C      4.19543049      7.68647223      3.18864470
  C      4.48113261      9.01357531      2.49248609
  C      3.65934006      4.45824678     -0.43853423
  H      5.28902071      5.91259870      1.26911237
  H      1.20373079      5.31435229      0.61906071
  H      1.55011664      7.10151492      2.71601532
  H      3.48910799      7.82104610      4.01557592
  H      5.12484015      7.24346044      3.55966806
  H      5.14517523      9.62403734      3.09902093
  H      3.55303295      9.55788676      2.33301132
  H      4.94129019      8.82673912      1.52267778
  H      2.75663004      4.21496236     -0.99622659
  H      4.09486743      3.54344399     -0.02016662
  H      4.38102576      4.95501415     -1.09018999
  N      8.31298320      8.56462355      8.60043652
  C      8.94395749      9.73052026      8.51962978
  N      9.25350958      9.96246954      7.24998371
  C      8.80413430      8.91446920      6.49874240
  C      8.20838777      8.03710166      7.35042855
  C      7.75676956      7.97517049      9.79300093
  C      6.48783259      8.71370269     10.20347767
  C      9.94639154     11.13361796      6.79278223
  H      9.22430524     10.41860706      9.31581193
  H      8.93306061      8.87027731      5.43732183
  H      7.77100050      7.06330216      7.20266357
  H      7.53889558      6.92698677      9.56140584
  H      8.50049180      8.03361254     10.59059364
  H      6.05912084      8.24407627     11.08362131
  H      5.75408412      8.67747289      9.40154657
  H      6.71094013      9.75402121     10.43150305
  H      9.31010772     11.71155414      6.12264137
  H     10.85720287     10.85137406      6.26558552
  H     10.19786716     11.73169021      7.67670011
 Cl      7.34948156      5.03269009      8.17198242
 Cl      1.30993094      7.75068671      5.13423229
 Cl      5.02535455      7.60450012     -0.69942650
 Cl      4.45386639      2.01535564      1.72255003
 Cl     10.26456920     12.17310488      9.93394583
