#B3LYP/6-31+G(d) OPT FREQ

62, Energy =    -96.28021215 au

0 1
  N      6.34203123      5.70054148      3.98740339
  C      5.96799752      5.00408368      2.91977882
  N      6.92875390      4.14394677      2.60128257
  C      7.93505623      4.28747065      3.50408382
  C      7.56933416      5.26897578      4.37176897
  C      5.59318385      6.75834518      4.61594752
  C      5.15317985      6.35612034      6.01842944
  C      6.90064443      3.14608779      1.57216453
  H      5.02873762      5.14221292      2.41186023
  H      8.81086451      3.67415731      3.47998232
  H      8.09969109      5.70809290      5.18927108
  H      6.24647685      7.63619709      4.65157159
  H      4.72519112      6.96586807      3.98851239
  H      4.55670564      7.15319543      6.45351119
  H      6.01505649      6.17780146      6.65637467
  H      4.55304300      5.44941708      5.98150099
  H      6.61707818      2.19553588      2.03277262
  H      7.89374911      3.03804946      1.13886010
  H      6.20077124      3.41324923      0.78246026
  N      3.50713296      2.52459842      2.79618047
  C      3.08473231      3.13163852      1.69191534
  N      3.30486064      2.33812887      0.64769432
  C      3.88181909      1.19075350      1.10603359
  C      4.00224761      1.30621117      2.45817643
  C      3.44935685      3.06447486      4.12980532
  C      2.30819280      2.43506903      4.92068786
  C      3.05292974      2.66285716     -0.72559242
  H      2.71117841      4.14643467      1.66731789
  H      4.17202651      0.39977207      0.44662672
  H      4.47293126      0.67658642      3.18652800
  H      4.41347262      2.83373092      4.60111936
  H      3.30472720      4.14245581      4.04262682
  H      2.28768755      2.85496816      5.92197745
  H      2.44980198      1.35997592      5.00145409
  H      1.35108911      2.63389134      4.44079994
  H      2.63954627      1.79977544     -1.24486963
  H      3.99619978      2.95707057     -1.21100722
  H      2.35769749      3.49702334     -0.77781133
  N      7.30982568      6.95492039      0.79479948
  C      6.50974131      6.33426624     -0.06873827
  N      5.30104651      6.87611198     -0.00084218
  C      5.32751090      7.87186711      0.92674978
  C      6.59294218      7.92586666      1.42464190
  C      8.71203152      6.70210923      1.01186828
  C      9.55693758      7.44979245     -0.01405976
  C      4.15369470      6.43048285     -0.73590714
  H      6.74176257      5.48640061     -0.69684393
  H      4.45254755      8.43169825      1.18134700
  H      7.04227490      8.50817274      2.20975893
  H      8.94550935      7.05321238      2.02570114
  H      8.89030724      5.62818417      0.93308767
  H     10.60847311      7.24403941      0.16253915
  H      9.39579445      8.52067826      0.07921164
  H      9.30137007      7.13743736     -1.02541894
  H      3.83096061      7.19671541     -1.44125050
  H      3.35132817      6.23576118     -0.02074830
  H      4.42372943      5.51916249     -1.26901019
 Cl      5.98890915      3.68048447     -1.76692669
 Cl      6.37966424      1.65997754      4.45818864
 Cl      2.87666871      6.22281402      2.31192519
 Cl    -24.30275132     -1.27648647     16.80899131
 Cl      8.56903970      8.22671406      3.94692209

