62
Energy =    -96.26618829 au
  N      1.79680385      2.68993901      5.14111773
  C      1.45698875      3.25702038      6.29321810
  N      0.52839213      2.51032015      6.88210090
  C      0.26956663      1.43182759      6.09482625
  C      1.06925457      1.54354103      4.99989691
  C      2.81074098      3.17810841      4.23420428
  C      4.11869851      2.42135753      4.42164987
  C     -0.11946511      2.76094021      8.13941570
  H      1.86310303      4.20362877      6.63783826
  H     -0.47804120      0.71194384      6.39702125
  H      1.17183839      0.90962591      4.14369263
  H      2.45169281      3.05167518      3.21081363
  H      2.95156739      4.24031804      4.43912000
  H      4.81110520      2.69008684      3.62599411
  H      3.94828232      1.34752069      4.37619499
  H      4.56700341      2.66544851      5.38080427
  H      0.59728993      2.67336492      8.95625115
  H     -0.90919381      2.00941099      8.26025576
  H     -0.54309943      3.76400247      8.14900508
  N      8.18764352      5.30386584      4.05203762
  C      8.36048416      6.38696339      4.80872700
  N      8.52240356      7.44543524      4.01659590
  C      8.53251825      7.01092947      2.72257128
  C      8.32164663      5.67061169      2.74467340
  C      7.97263601      3.95249324      4.50281037
  C      9.30898043      3.24480003      4.70505095
  C      8.78098394      8.79572382      4.42148849
  H      8.26336782      6.41485062      5.87468520
  H      8.65431283      7.70652216      1.91770498
  H      8.20656155      4.94905201      1.96232363
  H      7.42114291      3.99183888      5.44464625
  H      7.36511305      3.44826951      3.74445635
  H      9.15888286      2.30208211      5.22360039
  H      9.96890523      3.88236156      5.29026411
  H      9.78011291      3.04786646      3.74589422
  H      9.85580999      8.93253980      4.55591385
  H      8.28921040      8.99963694      5.37027001
  H      8.40445292      9.47166787      3.64981816
  N      5.33797156      7.08139556      2.25705421
  C      5.40670649      8.04627772      3.16989121
  N      5.24336850      7.51212999      4.37431349
  C      5.06461657      6.17024356      4.22599573
  C      5.11456664      5.89750526      2.89434656
  C      5.38511926      7.32071789      0.83233779
  C      6.24881268      6.31859703      0.07959535
  C      5.20093650      8.20216776      5.62987374
  H      5.67362910      9.06970524      2.93694795
  H      4.85986027      5.54336941      5.06888303
  H      5.08646208      4.94877052      2.38672264
  H      4.35779692      7.27900867      0.45200057
  H      5.77192592      8.33564341      0.70195334
  H      6.05629193      6.41288537     -0.98623638
  H      6.03253519      5.29677179      0.38221726
  H      7.30077778      6.51533921      0.25819620
  H      4.34866030      7.81744178      6.19925859
  H      5.09395991      9.27032916      5.45838114
  H      6.11102771      8.01323908      6.20076153
 Cl      2.76009184      6.13721796      6.56512540
 Cl     -2.13017127      0.13532719      7.81146880
 Cl     10.80399771      6.26860263      5.74656827
 Cl      6.09667003      3.08371854      1.62162585
 Cl      7.06272267     10.31875597      1.82194027
