62
Energy =    -96.25030049 au
  N      7.28148061      9.82083983     10.01254466
  C      6.85682898      8.66567321      9.48629788
  N      7.47280977      8.47336490      8.32221299
  C      8.38366494      9.47228060      8.13951537
  C      8.26930463     10.31472289      9.19340065
  C      6.91723373     10.35340155     11.29899291
  C      7.98663639     10.03497780     12.33911056
  C      7.30959439      7.35781847      7.43614593
  H      6.02183532      8.10109567      9.84421344
  H      8.97430903      9.50597119      7.23864191
  H      8.79492288     11.21693496      9.42707731
  H      6.77295282     11.43588041     11.19917057
  H      5.97191745      9.89333024     11.59415266
  H      7.65210268     10.32954335     13.33034747
  H      8.91526765     10.55027496     12.10662678
  H      8.16822246      8.96130434     12.31757745
  H      7.82730909      7.59611935      6.50438999
  H      6.25386862      7.17760484      7.23702431
  H      7.73949885      6.46619872      7.89397914
  N      9.27123453      5.54789181      4.74065398
  C      9.06418701      6.34614112      3.70094486
  N      7.78036368      6.31738038      3.37896731
  C      7.13978961      5.46690581      4.22609967
  C      8.07750622      4.98150774      5.08080819
  C     10.55047918      5.30822457      5.35328243
  C     10.85845343      6.36501840      6.41003840
  C      7.13198797      7.08965837      2.36045272
  H      9.81766210      6.92767997      3.21232299
  H      6.09501731      5.25353214      4.09522176
  H      7.99525224      4.28767340      5.89141843
  H     10.53755720      4.30557370      5.78851195
  H     11.29291725      5.32620818      4.55187724
  H     11.90996614      6.33034978      6.68229165
  H     10.26153507      6.20607610      7.30502596
  H     10.62358201      7.35129693      6.01520466
  H      7.01987090      8.11967806      2.70541035
  H      6.15086429      6.64803582      2.17468007
  H      7.72967149      7.07897212      1.45084667
  N      6.68367480      2.61704496      1.28231589
  C      5.44476640      2.25679213      1.59306491
  N      5.36804249      2.04275612      2.89516350
  C      6.58946749      2.29451830      3.43833442
  C      7.42069804      2.66151672      2.42728380
  C      7.16670081      2.98255222     -0.02313705
  C      7.39005737      4.48882077     -0.08721596
  C      4.17498625      1.62815824      3.56754357
  H      4.63399237      2.11966051      0.90790254
  H      6.77297885      2.20186795      4.48865247
  H      8.44615890      2.98723153      2.42881151
  H      8.10784231      2.45530937     -0.20398330
  H      6.42442294      2.65735497     -0.75591673
  H      7.59605821      4.79884041     -1.10878276
  H      8.23736306      4.75265773      0.54158741
  H      6.50138073      4.99921238      0.27477251
  H      4.40158851      1.38226792      4.60263830
  H      3.78911309      0.75109179      3.03885309
  H      3.44587566      2.43893880      3.52790846
 Cl     10.32764803      4.41843280      2.06364058
 Cl      4.54670533     -0.54918996      1.12957577
 Cl      4.40932363      4.98386871      2.35111541
 Cl      7.95071195      6.94551639     11.01700123
 Cl      9.02077108      9.01005338      5.00150301
