#B3LYP/6-31+G(d) OPT FREQ

62, Energy =    -96.25774515 au

0 1
  N      5.05946072      6.95858635      7.88969127
  C      5.83819698      6.09209483      7.24152602
  N      7.06419774      6.16298966      7.74547276
  C      7.08196924      7.08979044      8.73976593
  C      5.82102480      7.59179297      8.82987061
  C      3.66123541      7.19479659      7.61653410
  C      2.83219353      5.92973875      7.79209414
  C      8.21080549      5.40030692      7.34223946
  H      5.50068536      5.42730309      6.44893122
  H      8.01697854      7.33454675      9.22765445
  H      5.41570952      8.33591569      9.48345684
  H      3.32071686      7.98180656      8.29428350
  H      3.56661515      7.54953234      6.58503146
  H      1.78837122      6.14997835      7.58655867
  H      2.90822399      5.54811617      8.80622564
  H      3.16939476      5.16698751      7.09451873
  H      8.17380874      4.40478967      7.78576922
  H      9.10140731      5.92568077      7.71194490
  H      8.23274676      5.30389694      6.25893790
  N     -0.68143442      1.92141996      9.17297302
  C      0.38111728      1.60129710      9.92363687
  N      0.92650718      0.48894949      9.43378612
  C      0.19905112      0.07567399      8.36266330
  C     -0.80702565      0.97511169      8.19371444
  C     -1.47803018      3.11083890      9.34585695
  C     -0.68316801      4.36101771      8.98225539
  C      2.10845201     -0.15351482      9.92576262
  H      0.83255630      2.25110425     10.66585926
  H      0.51597818     -0.76413522      7.77340424
  H     -1.59214779      1.00814714      7.46661781
  H     -2.37043124      3.01476088      8.72034654
  H     -1.78653476      3.17138635     10.39391059
  H     -1.28388575      5.24582458      9.17201281
  H     -0.39659139      4.34716623      7.93407924
  H      0.22164315      4.41171916      9.58692256
  H      2.63945680     -0.57547436      9.06444329
  H      1.84859131     -0.96356843     10.60970042
  H      2.71902551      0.57902794     10.44824296
  N      3.90464702      1.94107851      7.64161380
  C      3.84326171      1.44609734      6.41336138
  N      2.65935584      1.71305957      5.88654182
  C      1.94161553      2.40886021      6.80618894
  C      2.71834828      2.55480666      7.91200503
  C      5.03791230      1.84155407      8.53003173
  C      5.27030267      3.14296100      9.28351063
  C      2.23368131      1.30231718      4.58328766
  H      4.62876044      0.91613474      5.91510977
  H      0.95232676      2.75923533      6.59886323
  H      2.51672590      3.04580232      8.84690582
  H      4.86643253      1.01580010      9.22901669
  H      5.90918722      1.59737983      7.91785729
  H      6.18667647      3.07558200      9.86341775
  H      4.44915434      3.35726000      9.96127306
  H      5.35896533      3.95907983      8.57243857
  H      1.21415983      1.64019286      4.41102572
  H      2.27563141      0.21260990      4.53112775
  H      2.89451029      1.73605671      3.83134300
 Cl     10.21385382      7.39285578      9.02870830
 Cl      2.74487135     -1.18393637      6.88503336
 Cl     17.04360978     -6.27778490    -30.25443221
 Cl      4.51970639      4.00768364      5.21972394
 Cl      2.13180644      3.90558795     11.00325595

