#B3LYP/6-31+G(d) OPT FREQ

62, Energy =    -96.21147172 au

0 1
  N      4.08754459      4.91778769      3.58804699
  C      4.48801648      5.55563524      2.48195164
  N      3.86405604      5.00613144      1.42676474
  C      2.93814728      4.11050313      1.90300178
  C      3.08041334      4.05400950      3.24734762
  C      4.50152607      5.18701661      4.94101668
  C      3.55439653      6.18576428      5.59989990
  C      3.94700136      5.53011422      0.09570880
  H      5.37595213      6.14926448      2.41432930
  H      2.26936440      3.59064654      1.24938233
  H      2.59501503      3.45269305      3.98934791
  H      4.49597280      4.23161223      5.47481546
  H      5.51599626      5.59160434      4.91165661
  H      3.95237066      6.51398966      6.55623883
  H      2.58138220      5.72985707      5.76192100
  H      3.43176204      7.04720106      4.94776711
  H      3.24617649      5.00503226     -0.54928367
  H      4.95990669      5.42156147     -0.29549535
  H      3.69214526      6.59316608      0.13554561
  N      6.16626958      0.89890530      4.14843964
  C      6.87688549      1.39927600      5.15484490
  N      6.97428269      0.48059320      6.11967818
  C      6.37776856     -0.66441611      5.67201608
  C      5.86262755     -0.39803127      4.44834392
  C      5.73530505      1.59349543      2.96037010
  C      6.71714695      2.68283721      2.55373938
  C      7.84815116      0.60397940      7.24789094
  H      7.16317247      2.42285137      5.25827422
  H      6.35872683     -1.56160548      6.25523940
  H      5.29872104     -1.01706525      3.78178379
  H      5.64549101      0.84954580      2.16406055
  H      4.74251464      2.01575772      3.15827919
  H      6.53446717      2.98122990      1.52492119
  H      7.73432239      2.30763278      2.64440654
  H      6.61571963      3.55656539      3.19110936
  H      8.85970971      0.76665431      6.85974199
  H      7.81415164     -0.30753033      7.83977271
  H      7.55981031      1.45469750      7.86498299
  N      4.99121517      2.27909516      9.30428990
  C      5.49740511      2.13548852     10.55928142
  N      5.62001557      0.79684096     10.81889278
  C      5.22261054      0.12404631      9.68288740
  C      4.83513122      1.03967230      8.76363081
  C      4.73923548      3.52190342      8.62483830
  C      6.03861435      4.25438670      8.29949753
  C      6.19773761      0.21963848     11.99281537
  H      5.64527892      2.91526372     11.27267166
  H      5.23533105     -0.94441334      9.63360217
  H      4.45755191      0.93085266      7.76193226
  H      4.21176702      3.27258382      7.69879518
  H      4.10150080      4.15076086      9.25389479
  H      5.81109397      5.21088320      7.83956911
  H      6.63120308      3.67242430      7.59878182
  H      6.62584580      4.42959148      9.19936565
  H      7.28877768      0.15589924     11.91057567
  H      5.80124989     -0.78479003     12.13719332
  H      5.95184534      0.82726426     12.86395897
 Cl      9.29943773      1.20961580      4.40141115
 Cl      3.82375457      1.91815445      5.80017425
 Cl     12.60817285    -25.90242938    -13.77215495
 Cl     -9.37603937     43.96330141     35.46591326
 Cl      3.40752010      7.74043790      2.46258601

