#B3LYP/6-31+G(d) OPT FREQ

62, Energy =    -96.29511969 au

0 1
  N      4.17728412      4.07988666      4.13221131
  C      4.34732056      3.51863363      2.94101715
  N      4.90144063      2.32269835      3.10560935
  C      5.08223347      2.11221420      4.43959781
  C      4.62206174      3.21780151      5.08535647
  C      3.63838200      5.39699167      4.35648786
  C      2.14836895      5.32905958      4.67231788
  C      5.31493420      1.42654903      2.06585101
  H      4.18734926      4.04662325      2.00577063
  H      5.56070851      1.22802864      4.80565415
  H      4.63274768      3.48564291      6.12202440
  H      4.18551725      5.83759267      5.19437875
  H      3.80799675      5.97361021      3.44446076
  H      1.76878913      6.33133502      4.84738493
  H      1.97250256      4.73106711      5.56437615
  H      1.60317075      4.89206987      3.83818032
  H      4.65001275      0.56264649      2.01531045
  H      6.32850237      1.08051437      2.30024591
  H      5.30287193      1.95253563      1.11444143
  N      9.68214323      5.90317370      5.23259257
  C      8.89467538      5.21519487      6.05335056
  N      8.98659208      3.92339800      5.76039512
  C      9.86669330      3.77965560      4.73342623
  C     10.30720658      5.02529765      4.40218388
  C      9.84272324      7.33382405      5.20786513
  C     11.09228441      7.75668575      5.97232948
  C      8.21883996      2.87842900      6.37231949
  H      8.19001699      5.62563218      6.75745217
  H     10.06662193      2.81873317      4.30433436
  H     10.94078040      5.36868906      3.61003692
  H      9.92098630      7.62474360      4.15121809
  H      8.95252512      7.78112256      5.65289744
  H     11.19543591      8.83693390      5.93000755
  H     11.97655312      7.30938543      5.52512403
  H     11.03101148      7.45094281      7.01611311
  H      8.76410294      2.43908041      7.20926600
  H      8.02591087      2.10685073      5.62304217
  H      7.28210203      3.30315167      6.72863973
  N      7.66689324      4.69038599      1.66275661
  C      7.36959567      5.98255615      1.64824336
  N      6.94333927      6.34280910      2.84878475
  C      6.96784226      5.24923041      3.65989206
  C      7.43080321      4.20960297      2.91737973
  C      8.23885075      3.93529399      0.57927742
  C      9.75632118      3.87963908      0.72376105
  C      6.50546716      7.65605640      3.21460954
  H      7.44598223      6.63053052      0.80024518
  H      6.64690561      5.30090079      4.68374501
  H      7.61604726      3.18129659      3.17089192
  H      7.81888367      2.92682396      0.60594367
  H      7.95542854      4.42095765     -0.35675444
  H     10.20655729      3.46710490     -0.17479927
  H     10.02329454      3.25666076      1.57310023
  H     10.14117915      4.88283777      0.89152117
  H      7.30520566      8.36989149      3.01236419
  H      6.25373865      7.66208525      4.27286892
  H      5.62653695      7.91804278      2.62286922
 Cl      5.91597028      5.62121910      6.94275171
 Cl    -34.60282489     31.25294223     31.82013529
 Cl      8.17111647      0.94099929      3.63071524
 Cl      9.94849199      7.19697997      1.96772210
 Cl      4.57020591      5.78414250      0.84969892

