#B3LYP/6-31+G(d) OPT FREQ

62, Energy =    -96.03912318 au

0 1
  N      2.53280760      1.73565520      2.67678533
  C      2.38057198      2.04447850      3.97007061
  N      3.43999967      1.57652528      4.63755698
  C      4.29637148      0.98359210      3.75192264
  C      3.72444903      1.08494063      2.51180368
  C      1.61560256      2.12100899      1.59805286
  C      2.29711944      3.03191505      0.59418087
  C      3.73584792      1.83581952      6.04191536
  H      1.58553086      2.63085700      4.39395884
  H      5.23829967      0.56757540      4.05896769
  H      4.08494101      0.77602141      1.54818640
  H      1.25659831      1.20411565      1.13144882
  H      0.77293366      2.61727057      2.07382474
  H      1.58113707      3.29866948     -0.18196959
  H      3.14949613      2.54294728      0.12721451
  H      2.65248024      3.93692284      1.07693301
  H      4.52454608      2.58136990      6.09552061
  H      4.04538694      0.90670827      6.51272566
  H      2.84591237      2.22992678      6.51931288
  N      9.47851763      1.60093258      7.31856772
  C      9.20899146      2.06505171      8.54457075
  N     10.28247277      2.72969833      8.98364708
  C     11.24317756      2.71368447      8.01098039
  C     10.73535755      2.00155114      6.95729788
  C      8.53938682      0.86607032      6.46332674
  C      8.23499653      1.63488806      5.19122616
  C     10.34536219      3.51796103     10.20907312
  H      8.26996299      1.98558333      9.06179571
  H     12.18337005      3.22057411      8.12792584
  H     11.15569364      1.78410577      5.99294375
  H      8.98354129     -0.10586036      6.25031417
  H      7.64089408      0.71087595      7.05607527
  H      7.53113036      1.05918186      4.59178223
  H      9.13463024      1.80424343      4.60328822
  H      7.79835220      2.60146222      5.42241035
  H     10.28862845      4.57038726      9.94460387
  H     11.27673037      3.29493238     10.72243070
  H      9.49432226      3.26498161     10.83112349
  N      8.71480000      6.42391834      0.06666568
  C      9.65567965      5.65279370     -0.49122911
  N      9.98463039      4.69778120      0.38435516
  C      9.22134349      4.84456367      1.50913899
  C      8.41716515      5.93470007      1.30873520
  C      8.04240449      7.55155949     -0.58887691
  C      6.55418268      7.29574560     -0.73628504
  C     10.85987706      3.56414770      0.10903629
  H     10.03200275      5.73532231     -1.49481334
  H      9.28687654      4.16300789      2.33724672
  H      7.65539585      6.36560575      1.93160890
  H      8.24121147      8.44171323      0.00727651
  H      8.52057487      7.67313236     -1.55805101
  H      6.09738846      8.15091925     -1.23248591
  H      6.07576450      7.15926212      0.23127963
  H      6.37514030      6.40343061     -1.32796722
  H     10.24419704      2.67932464     -0.02804011
  H     11.54343496      3.43756674      0.94417121
  H     11.40553882      3.75867728     -0.80727463
 Cl      5.00000350      5.95241581      4.89337240
 Cl    -16.85436153     21.45124271     20.02965535
 Cl      9.63383776      0.50354839      2.89239832
 Cl      5.09697306     16.98336080      9.91663794
 Cl      3.62874699      4.49271210      2.82001260

