62
Energy =    -96.25768407 au
  N      3.68385562      8.74718178      1.64751116
  C      4.28448869      9.89563095      1.93536457
  N      5.59958841      9.72827932      1.88292905
  C      5.84903448      8.43837255      1.52470726
  C      4.64915714      7.82202771      1.37579697
  C      2.26186336      8.54952143      1.56724359
  C      1.77650795      8.79748330      0.14190553
  C      6.55100858     10.77467853      2.10147662
  H      3.79015259     10.80035659      2.21845675
  H      6.84449003      8.06076061      1.40988436
  H      4.41331436      6.81067879      1.11686232
  H      2.03487196      7.53156341      1.89712610
  H      1.79471148      9.25228194      2.25987749
  H      0.69242167      8.86454615      0.11365283
  H      2.10013267      7.99577171     -0.51821633
  H      2.20835079      9.72937756     -0.21977171
  H      7.55877920     10.38905056      1.96244668
  H      6.43820932     11.15901486      3.11643984
  H      6.35092222     11.57195689      1.38129332
  N      5.91091404      5.77398581      5.49906917
  C      6.18540005      4.68691268      6.21653719
  N      5.43695380      4.71381991      7.31513239
  C      4.67265377      5.84205541      7.29971973
  C      4.96838730      6.50965417      6.15370431
  C      6.49553506      6.12381893      4.22788357
  C      6.28428335      5.01219651      3.20834929
  C      5.40910422      3.74025946      8.36992967
  H      6.87996547      3.89926598      5.91552944
  H      3.98616208      6.03982753      8.10408669
  H      4.60195550      7.43803070      5.74761964
  H      6.02601133      7.05796656      3.90861035
  H      7.56831487      6.28708217      4.36730381
  H      6.68766283      5.31303720      2.24558813
  H      5.22371558      4.80043130      3.09424692
  H      6.79464403      4.10738608      3.53704558
  H      5.19052605      2.75298398      7.96435830
  H      4.63522869      4.03640107      9.08114142
  H      6.37505292      3.70114297      8.87461964
  N      2.44106162      8.94151423      9.29865041
  C      3.31631396      8.39372544     10.13854658
  N      2.92592947      8.62401637     11.38649534
  C      1.75576760      9.31627893     11.35581546
  C      1.44988880      9.51531788     10.04678474
  C      2.46294738      8.85530066      7.85829539
  C      1.55582297      7.72806438      7.37790772
  C      3.55853313      8.16325207     12.58787481
  H      4.20633109      7.87479858      9.84924550
  H      1.29859835      9.64178728     12.27751344
  H      0.61858197     10.01399112      9.59341997
  H      2.13929625      9.81226422      7.44191163
  H      3.48594505      8.67044143      7.53054927
  H      1.72578951      7.56244053      6.31884108
  H      0.50885972      7.97590036      7.54033245
  H      1.78594039      6.81783683      7.92616520
  H      3.40032745      7.08808070     12.68518707
  H      3.10071835      8.69283210     13.43012234
  H      4.62912215      8.36168590     12.55093937
 Cl      1.71822789     10.25508416     14.45792494
 Cl      8.06104442      2.49493754      4.93276552
 Cl      2.92555259      5.62378894     10.06603776
 Cl      4.20780640      9.34464693      4.66218296
 Cl      4.24020833     11.21209793     -0.40825077
