62
Energy =    -96.25648940 au
  N      0.73971228      7.64374523      4.13950205
  C      0.68446898      6.56525889      4.92646103
  N      1.22519994      6.85891954      6.10627578
  C      1.68738924      8.14034655      6.06036597
  C      1.38765423      8.63009845      4.83147745
  C      0.34565697      7.66919360      2.75560264
  C     -1.17211921      7.64775447      2.60409637
  C      1.36885043      5.97114834      7.22537499
  H      0.21334351      5.63948735      4.67407487
  H      2.18508789      8.57170656      6.91256593
  H      1.58875677      9.58544601      4.39427723
  H      0.76034738      8.57224312      2.30327563
  H      0.79623941      6.79484618      2.27332904
  H     -1.43540040      7.67957477      1.55071644
  H     -1.61895665      8.50668758      3.10193278
  H     -1.58709901      6.74040544      3.03596196
  H      0.39150488      5.62788473      7.56617424
  H      1.86999737      6.51802718      8.02887468
  H      1.96931338      5.10890494      6.93563916
  N      5.25659497      3.71130409      0.64116182
  C      5.14224697      4.51388196      1.69465321
  N      6.27401312      5.19184629      1.84882370
  C      7.13819022      4.80211269      0.86731356
  C      6.49713117      3.87126031      0.10826035
  C      4.23721753      2.83805745      0.10811966
  C      2.95641283      3.61249435     -0.17378066
  C      6.51178751      6.19436237      2.84587764
  H      4.27561209      4.62518807      2.32720469
  H      8.12775812      5.20295101      0.79754775
  H      6.77483395      3.31924824     -0.78013561
  H      4.64821455      2.40973735     -0.81657383
  H      4.04280274      2.03998987      0.82851082
  H      2.20907375      2.93651054     -0.57832927
  H      3.14749304      4.39279125     -0.90762247
  H      2.56140733      4.06749647      0.73352747
  H      6.64638769      7.16769248      2.36950721
  H      7.42154107      5.97211509      3.41679402
  H      5.65145658      6.23218795      3.50938556
  N      6.15719176      7.16515982      7.21793001
  C      7.40851838      6.97465268      6.81228464
  N      8.23719307      7.46285961      7.72919792
  C      7.49076400      7.97949306      8.74928983
  C      6.18267436      7.79079812      8.42481548
  C      4.95925521      6.77076278      6.51431585
  C      4.93559226      5.27021413      6.25075131
  C      9.66810161      7.41875344      7.62813538
  H      7.76966473      6.51925934      5.89338482
  H      7.92643113      8.43733453      9.61279442
  H      5.26766666      8.05131735      8.93053457
  H      4.11729232      7.07695349      7.14067270
  H      4.91435641      7.31167723      5.56590990
  H      4.12199294      5.04410393      5.56656190
  H      4.78825108      4.71840432      7.17572229
  H      5.86549166      4.94425857      5.79135665
  H     10.08645504      6.82133232      8.44017336
  H     10.08517492      8.42459214      7.66979631
  H      9.91774704      6.95600343      6.66778401
 Cl    -20.54162724    -15.04581548     32.85623335
 Cl      9.35263386      5.93300601      4.61502818
 Cl      6.11129695      2.06219478     -2.49318899
 Cl      2.56663521      5.29439766      3.59075994
 Cl      3.01167648      8.28570884      9.03216406
