62
Energy =    -96.28704455 au
  N      3.35801760      4.47120541      3.58179781
  C      3.79440425      3.56221949      2.71818481
  N      4.43836858      2.60929476      3.38429205
  C      4.40286299      2.91539888      4.71162019
  C      3.71971742      4.08609359      4.83494798
  C      2.65262804      5.67743910      3.23197340
  C      1.14461466      5.46529538      3.30268553
  C      5.11616552      1.48039273      2.81622173
  H      3.75265706      3.69158415      1.64586862
  H      4.91048824      2.31381303      5.43680925
  H      3.52279449      4.70347277      5.68819472
  H      2.96271048      6.45328466      3.93884542
  H      2.95468538      5.94346947      2.21648618
  H      0.63731168      6.38841724      3.03923139
  H      0.84592230      5.18186794      4.30984405
  H      0.83405097      4.68708279      2.60790772
  H      4.55191634      0.56350396      2.99591679
  H      6.09845314      1.39259889      3.29855254
  H      5.23252707      1.63215272      1.74596274
  N      9.58407705      5.38817288      6.24169985
  C      8.55525266      6.00405036      5.66462232
  N      8.40156583      7.20800790      6.20855562
  C      9.39700458      7.38778586      7.12025177
  C     10.13936742      6.24939936      7.14286050
  C     10.11255238      4.10274681      5.85529768
  C     11.22466251      4.29096844      4.82923368
  C      7.46227229      8.19244742      5.75810856
  H      7.89779057      5.55628804      4.94808774
  H      9.50400127      8.29587835      7.67768399
  H     11.00132324      5.99239201      7.72339673
  H     10.48359848      3.59614602      6.75062104
  H      9.29865614      3.51053355      5.42578786
  H     11.46591426      3.34109847      4.36290423
  H     12.12101627      4.70206431      5.29113695
  H     10.88019668      4.98382708      4.06536446
  H      7.65832243      8.37714214      4.70022735
  H      7.59385428      9.11020908      6.32597370
  H      6.43279411      7.83679201      5.86823835
  N      7.17364464      4.89112427      1.81232079
  C      6.75289236      6.09400595      1.44952637
  N      6.09311909      6.64912194      2.45579020
  C      6.08204325      5.76977718      3.49193661
  C      6.76165676      4.66229466      3.09020200
  C      7.93085019      3.96613495      1.01031882
  C      9.20141998      3.55029434      1.73963295
  C      5.44957593      7.93007405      2.46287522
  H      6.93012505      6.55166355      0.49797310
  H      5.58551663      6.01612879      4.41304087
  H      7.00533323      3.75576058      3.61702598
  H      7.30247796      3.09524040      0.79767955
  H      8.16632307      4.46129896      0.06553432
  H      9.83857451      2.96649994      1.08074519
  H      8.96113416      2.95438291      2.61612013
  H      9.73567696      4.44088395      2.05917851
  H      4.95800323      8.05907257      3.42711440
  H      4.71107116      7.96851245      1.66105508
  H      6.18453177      8.72235046      2.31511882
 Cl      4.19379086      7.28160131      5.81184118
 Cl    -38.48551759     33.04872909     34.15317890
 Cl      7.69004137      1.90599024      4.80135648
 Cl      9.37217949      6.93990385      3.29498865
 Cl      4.39181940      5.17587557      0.14527796
