62
Energy =    -96.25428363 au
  N      0.06097070      2.62332199      1.96613552
  C      0.56301732      3.85768781      1.97236949
  N      1.59178954      3.91172130      1.12616251
  C      1.68010851      2.70771411      0.48974588
  C      0.72376770      1.90161090      1.01282726
  C     -1.06198453      2.16923504      2.74321974
  C     -2.35627453      2.30969581      1.94855305
  C      2.33375047      5.10387490      0.85081638
  H      0.32912626      4.60996879      2.69538036
  H      2.40246460      2.52227025     -0.27965819
  H      0.47262215      0.88394714      0.79588998
  H     -0.88571233      1.12747497      3.02914618
  H     -1.10475655      2.77946113      3.64735605
  H     -3.21475350      2.14179917      2.59229722
  H     -2.38259512      1.59635862      1.12804798
  H     -2.40608428      3.31383573      1.53277328
  H      1.62673705      5.87850249      0.54303486
  H      3.04904242      4.91715033      0.05257700
  H      2.85738929      5.42580549      1.75233307
  N      1.52659647      0.58882858      7.12473281
  C      1.61563716      1.91636937      7.20953760
  N      2.89061563      2.27428123      7.07844002
  C      3.63920002      1.13694282      6.97240125
  C      2.79084399      0.08053543      7.00057879
  C      0.33178331     -0.19583308      7.30035174
  C     -0.00626390     -0.98613538      6.04271817
  C      3.36143816      3.62069958      7.19982259
  H      0.78943612      2.59504806      7.20387299
  H      4.70550700      1.16707891      6.88836387
  H      2.96861593     -0.97236965      6.88972252
  H      0.49477235     -0.88148462      8.13675765
  H     -0.47401350      0.48945576      7.57194997
  H     -0.90729945     -1.57125289      6.20592141
  H      0.80922602     -1.66265531      5.79574687
  H     -0.17305458     -0.31221194      5.20535620
  H      4.44615947      3.62137872      7.28095946
  H      2.91972260      4.05307508      8.09995934
  H      3.06102448      4.19637120      6.32283924
  N      5.37427831      1.39952376      3.22047711
  C      4.13521094      1.14815149      2.78663514
  N      3.68744640      0.04442854      3.37635376
  C      4.63945990     -0.41071420      4.23478082
  C      5.69575546      0.43646091      4.14372581
  C      6.14263027      2.58258820      2.92794233
  C      5.86523403      3.66133619      3.97092997
  C      2.37198022     -0.50614890      3.24430219
  H      3.61296881      1.70993286      2.04076308
  H      4.45190908     -1.29614657      4.82264462
  H      6.63999904      0.43154301      4.64712736
  H      7.20344957      2.31390891      2.90958548
  H      5.84967119      2.94000542      1.93796823
  H      6.31108757      4.60475852      3.66985120
  H      6.26923285      3.37125045      4.93731230
  H      4.78760004      3.78329784      4.06828349
  H      2.31415576     -1.38734903      3.89186054
  H      2.17507778     -0.78323098      2.20858469
  H      1.65228138      0.24841553      3.56270881
 Cl      2.49263343      2.93991723      3.97959362
 Cl     30.98994770     13.79477102     -7.61837141
 Cl      1.34997618      2.41112581      9.68799252
 Cl      2.98911917     -2.93893184      5.40683839
 Cl     -1.01262775      5.18133235      0.52616109
