#B3LYP/6-31+G(d) OPT FREQ

62, Energy =    -96.13452623 au

0 1
  N      9.71290111      8.85893538      7.27156853
  C     10.44663767      7.99105208      6.57515615
  N      9.99712254      6.75415637      6.81074518
  C      8.88284281      6.86112935      7.60205055
  C      8.70637620      8.17246751      7.89371376
  C      9.86388057     10.29272189      7.27731174
  C      8.68160713     10.94946439      6.57673451
  C     10.44422577      5.59240081      6.09937204
  H     11.35196773      8.22453676      6.05555042
  H      8.32068862      6.00156271      7.90285447
  H      7.93612312      8.67670831      8.45657302
  H      9.91883171     10.63238184      8.31608895
  H     10.79948798     10.53134004      6.76630924
  H      8.85198682     12.01770136      6.48054252
  H      7.77936821     10.78324261      7.15888032
  H      8.56357798     10.51472743      5.58753626
  H     10.33031574      5.79358959      5.02958800
  H      9.84013888      4.73389349      6.38259192
  H     11.49433662      5.38886068      6.31432293
  N      6.17060879      8.50197951      4.98343703
  C      5.62328042      9.23619124      5.98446509
  N      5.49589431     10.51345261      5.54508780
  C      5.88866530     10.54994595      4.23420532
  C      6.30879868      9.30709815      3.89192823
  C      6.55262987      7.11974785      5.05399923
  C      5.63316324      6.22735466      4.22307337
  C      5.01356183     11.59361495      6.34295492
  H      5.64811884      8.99244852      7.03051484
  H      5.87212492     11.45401845      3.66042442
  H      6.73472474      8.94860559      2.97817429
  H      7.58425065      7.04499741      4.68950093
  H      6.52245507      6.82534803      6.10426658
  H      5.95919758      5.19387537      4.30080512
  H      5.66597775      6.51770343      3.17608006
  H      4.60612577      6.29813273      4.57417270
  H      3.91594611     11.63760251      6.32375689
  H      5.41682554     12.53647379      5.97842249
  H      5.32972988     11.42480246      7.37494954
  N      2.00785218      9.83658435      5.01533752
  C      1.75180575     10.16916650      6.36241307
  N      2.47026246      9.20662042      7.10789814
  C      3.08196008      8.34001535      6.23749997
  C      2.77213781      8.70739705      4.97055537
  C      1.50700859     10.56095804      3.88862171
  C      2.51167090     11.58871280      3.35798018
  C      2.74618638      9.29398200      8.50976327
  H      1.88007678     11.21619345      6.64424254
  H      3.61226065      7.48233023      6.59639837
  H      3.03273804      8.24818666      4.03731919
  H      1.26233834      9.85163833      3.09000254
  H      0.58736945     11.06891331      4.19383004
  H      2.09405684     12.10922165      2.50025583
  H      3.43024064     11.09115242      3.05578927
  H      2.74673880     12.31951580      4.12754356
  H      3.76064483      9.66032263      8.70325037
  H      2.64734141      8.30905564      8.97066342
  H      2.03000600      9.97120256      8.96944743
 Cl    -18.17640904      2.51460212    -13.33621333
 Cl      6.20399696      9.96180269      9.07542487
 Cl      9.60729407      8.13174350      4.14735406
 Cl     41.11548876     -4.12483160     23.44902711
 Cl    -17.69104666      0.11156727    -13.55395438

