#B3LYP/6-31+G(d) OPT FREQ

62, Energy =    -96.27059966 au

0 1
  N      1.42766311      3.52797827      3.98122849
  C      0.14305746      3.19253189      4.00784315
  N     -0.13129881      2.64508941      5.18661749
  C      1.00992151      2.63250516      5.93292501
  C      1.99387594      3.19351112      5.17765095
  C      2.07611789      4.16016581      2.85721883
  C      2.61702712      5.53051162      3.24464603
  C     -1.40276149      2.13976395      5.62204048
  H     -0.52339751      3.34183547      3.15936117
  H      1.00043231      2.23772754      6.93083563
  H      3.02407345      3.40575178      5.40609727
  H      2.90032281      3.52222609      2.52354629
  H      1.32674633      4.23482943      2.06322244
  H      3.05316673      6.01072011      2.37251901
  H      3.38523677      5.43187930      4.00820130
  H      1.81208321      6.15826200      3.62082116
  H     -2.19513652      2.83047010      5.33494692
  H     -1.36957796      2.02491013      6.71168004
  H     -1.60028881      1.16738793      5.16533555
  N      7.42303411      6.37043242      8.46414015
  C      8.65987991      6.85174627      8.42498797
  N      8.60845901      8.18084615      8.44401866
  C      7.29741870      8.55327403      8.49817664
  C      6.55141442      7.41584832      8.50815719
  C      7.03470768      4.98020289      8.46677891
  C      6.35458291      4.61898505      9.78384921
  C      9.75520674      9.04525262      8.41783382
  H      9.59909842      6.31218401      8.42180245
  H      6.99228317      9.57903297      8.52754111
  H      5.48822169      7.28295005      8.62425359
  H      6.35354106      4.81240309      7.62054558
  H      7.93535154      4.38079238      8.31648485
  H      5.98353908      3.59914103      9.73470700
  H      5.51836151      5.28796903      9.97962564
  H      7.05976566      4.69506502     10.60986705
  H      9.79825463      9.59044372      7.47173787
  H     10.64769111      8.41267372      8.52403220
  H      9.70588277      9.75934072      9.24246513
  N      2.07401768      4.32490416      8.62557583
  C      2.95075971      5.14739819      8.06290853
  N      2.30145274      6.03889400      7.32849922
  C      0.96548760      5.79876337      7.45216198
  C      0.82136775      4.72242504      8.27041646
  C      2.37717998      3.25614809      9.54217348
  C      2.49100686      3.80685166     10.96161375
  C      2.94126810      7.12269174      6.64520799
  H      4.01625710      5.06313353      8.10457313
  H      0.22727518      6.39874475      6.96137022
  H     -0.04098250      4.16922384      8.59077122
  H      1.56637835      2.52319673      9.47545724
  H      3.31839719      2.79752243      9.22962277
  H      2.93442188      3.06633778     11.62100690
  H      1.50536178      4.06804135     11.33855589
  H      3.10753286      4.70271772     10.96122683
  H      3.27656924      7.84968133      7.38827596
  H      2.24888144      7.58675344      5.94698261
  H      3.80986523      6.72529394      6.11521048
 Cl     -0.63470837      1.76625481      8.83627935
 Cl      3.65183510      7.10404621      9.96497265
 Cl     -1.00058096      3.82939071      1.15499666
 Cl      5.03247952      4.63712639      5.74179993
 Cl     11.81214829      6.54096483      8.76379218

