#B3LYP/6-31+G(d) OPT FREQ

62, Energy =    -96.26390956 au

0 1
  N      8.73182927      4.36773518      3.08497806
  C      9.86563852      3.98875276      2.50155477
  N     10.85560609      4.09138712      3.38267985
  C     10.33566232      4.54317577      4.56235393
  C      8.99973603      4.71194933      4.37494078
  C      7.41973946      4.38304156      2.48668298
  C      6.70927342      3.04802093      2.68815773
  C     12.22862529      3.79208797      3.08934129
  H     10.04950279      3.68698664      1.46898727
  H     10.94159707      4.70986990      5.42858262
  H      8.22819458      5.10426934      5.01120862
  H      6.85707386      5.18866798      2.97048167
  H      7.54261489      4.58950320      1.42248364
  H      5.71507300      3.08932847      2.25250223
  H      6.60730414      2.83281933      3.74917888
  H      7.26972429      2.24429279      2.21514325
  H     12.56275569      2.92822785      3.66433546
  H     12.85986466      4.64748883      3.32809433
  H     12.29046884      3.56998832      2.01643796
  N      4.68934040      5.99542638      0.93771201
  C      3.68269113      6.04772433      1.80697867
  N      3.88329983      7.06038604      2.64200989
  C      5.04795814      7.67349293      2.29685360
  C      5.55438539      7.00943035      1.22403723
  C      4.78545128      5.06245681     -0.15846685
  C      4.39332506      5.72905847     -1.47253481
  C      3.07037412      7.46327588      3.75167559
  H      2.87987401      5.32306722      1.81522203
  H      5.43993436      8.50309302      2.84621561
  H      6.45790797      7.17108900      0.67379274
  H      5.80874643      4.68474775     -0.21748723
  H      4.09551988      4.23827349      0.06428766
  H      4.44975866      4.99913320     -2.27433301
  H      5.05709693      6.56082060     -1.70812120
  H      3.37102350      6.09619459     -1.41355112
  H      2.59896913      8.42419065      3.54770743
  H      3.70546839      7.56551500      4.62968245
  H      2.29282674      6.73384432      3.96671698
  N      1.87790547      3.55060176      5.03549931
  C      2.09039447      4.25564720      6.14639732
  N      3.30651462      4.79412835      6.08895066
  C      3.85903612      4.47482665      4.88147171
  C      2.96616926      3.69705978      4.21963180
  C      0.64080911      2.91622031      4.65284963
  C     -0.10632448      3.79672604      3.65671456
  C      3.85813619      5.71833763      7.03702970
  H      1.43769594      4.29002041      6.99268243
  H      4.81966613      4.86032933      4.60015590
  H      2.98661792      3.27873121      3.22915224
  H      0.87293694      1.94687156      4.20177881
  H      0.04423209      2.76727167      5.55595277
  H     -1.09465487      3.38839420      3.46372331
  H      0.44668555      3.84384052      2.72209204
  H     -0.20440092      4.79813707      4.06886713
  H      3.12918160      6.51603239      7.19716025
  H      4.77674074      6.13075579      6.62109447
  H      4.07066453      5.22451062      7.98674402
 Cl      2.33989069      3.23241526      1.02700337
 Cl      9.99055305    -18.17837878     37.90915443
 Cl      0.72211918      6.47883478      5.87096131
 Cl     11.43216286      3.29626822     -0.06091526
 Cl      6.40330916      6.65941835      4.77139504

