62
Energy =    -96.26567474 au
  N      3.18350278      9.14727122      3.48109321
  C      3.56437505      8.67014987      4.66397881
  N      3.13390481      7.41884211      4.78682418
  C      2.40183912      7.10854565      3.67717096
  C      2.43354006      8.18958665      2.85862777
  C      3.50410985     10.46302046      2.99677594
  C      4.85719991     10.45506806      2.29144048
  C      3.39406974      6.59309163      5.92735618
  H      4.24267182      9.14771096      5.33537557
  H      1.92398279      6.15821143      3.55585503
  H      1.98680529      8.35026668      1.89922939
  H      2.70861604     10.78825965      2.32130384
  H      3.52175364     11.12686005      3.86515488
  H      5.20386705     11.47047477      2.12195729
  H      4.78866781      9.94309611      1.33392043
  H      5.58147708      9.92672389      2.90650790
  H      4.47550233      6.49395656      6.04423450
  H      2.94503803      5.61313408      5.78167252
  H      2.97220460      7.06799007      6.81500614
  N      8.80579456      6.95125206      7.75387458
  C      9.06854395      6.13397043      8.76724467
  N      8.06673150      5.27102769      8.90112599
  C      7.13512023      5.54969290      7.94648080
  C      7.59927742      6.60519315      7.22395730
  C      9.64182572      8.03787110      7.30196688
  C      9.90911588      7.93324886      5.80601123
  C      8.01717937      4.22955186      9.88668537
  H      9.97416554      6.05311002      9.36191961
  H      6.22964286      4.98686110      7.84708851
  H      7.17752929      7.08902734      6.35969045
  H      9.14556100      8.99159981      7.53875547
  H     10.57530464      7.98490286      7.86527813
  H     10.52752534      8.76907448      5.49223418
  H      8.98108354      7.96097412      5.24158010
  H     10.43057212      7.00590751      5.57479272
  H      7.64989885      3.30822628      9.43708240
  H      7.36373692      4.51530215     10.71182794
  H      9.04063345      4.08865371     10.26166686
  N      5.09853427     10.61968085      7.21186878
  C      6.21577246     10.20940168      6.61542017
  N      6.52148864     11.05481832      5.63374093
  C      5.60560499     12.06546967      5.64293778
  C      4.71259760     11.79193250      6.62836751
  C      4.39872244      9.99672259      8.31125394
  C      5.17013112      8.81724588      8.87709684
  C      7.71316079     10.94996813      4.84670325
  H      6.71183832      9.27672534      6.76497337
  H      5.65989662     12.89131807      4.96357967
  H      3.82792034     12.30772687      6.93748380
  H      4.26350098     10.75538524      9.08827440
  H      3.40846488      9.70166680      7.94071155
  H      4.66613911      8.44715175      9.76594704
  H      6.17424989      9.13654315      9.14758119
  H      5.23681355      8.00954788      8.15286162
  H      7.73055797      9.97042191      4.36619280
  H      8.57234053     11.03484346      5.51563226
  H      7.73627688     11.73929602      4.09926400
 Cl      8.10333819     10.90149219      8.24837471
 Cl     11.20115626      4.58979228     10.39757119
 Cl      1.86340905      9.90761704      6.11164561
 Cl    -17.80946683    -16.46584539     -6.80222885
 Cl      6.31291850      7.87300376      4.40346641
