62
Energy =    -96.29539820 au
  N      4.09034617      5.60264525      3.92699046
  C      3.96855035      4.68184987      2.97843088
  N      4.19512502      3.48565437      3.51137337
  C      4.45904430      3.64890851      4.83827615
  C      4.38890869      4.98227539      5.10013457
  C      3.96068731      7.02320989      3.72684373
  C      2.53944504      7.48718354      4.02547752
  C      4.22465280      2.23561083      2.80915294
  H      3.86088563      4.92067800      1.92500225
  H      4.71822255      2.81821731      5.46087414
  H      4.59002664      5.54443729      5.98999437
  H      4.67020333      7.51293354      4.39967176
  H      4.21598515      7.22823833      2.68483648
  H      2.47058940      8.56066919      3.87692023
  H      2.27295991      7.26236881      5.05626845
  H      1.83152514      6.99792680      3.35933275
  H      3.33324116      1.64689116      3.03320319
  H      5.10879022      1.67902665      3.13781198
  H      4.27543203      2.42725946      1.74004270
  N      8.61602127      4.72311606      6.03927520
  C      8.97233159      3.77937412      5.17366284
  N      9.82693296      4.29745875      4.29941378
  C     10.02673320      5.60585626      4.61365931
  C      9.26696252      5.87312231      5.71122375
  C      7.67424664      4.56689960      7.11726804
  C      8.39131651      4.37678515      8.44948309
  C     10.40154776      3.62379692      3.17315575
  H      8.53321699      2.79257543      5.11619153
  H     10.62823269      6.23919642      3.99298129
  H      9.09388317      6.78726301      6.24005741
  H      7.05381781      5.47054893      7.13646299
  H      7.05124636      3.70126186      6.88783365
  H      7.65924812      4.27502270      9.24534574
  H      9.02150246      5.23563548      8.66877132
  H      9.01085821      3.48170214      8.42847560
  H     11.42792809      3.32231583      3.38983071
  H     10.40904237      4.32779375      2.33097462
  H      9.80474008      2.74487023      2.94221958
  N      7.29015360      4.70207055      1.38238257
  C      7.39650198      6.01553205      1.22364921
  N      7.26099439      6.60875556      2.39880912
  C      7.07314934      5.64787059      3.34321100
  C      7.09043440      4.44705108      2.70690510
  C      7.31334274      3.74157369      0.31001817
  C      8.73361040      3.50077210     -0.19560271
  C      7.39078988      8.01009112      2.66716059
  H      7.55009222      6.51503421      0.28999894
  H      6.91234254      5.91557014      4.36959941
  H      6.99773424      3.45019407      3.09555174
  H      6.87289170      2.81472046      0.68292619
  H      6.67834780      4.13845099     -0.48690257
  H      8.71226598      3.08939387     -1.20104910
  H      9.26023870      2.80701928      0.45428371
  H      9.28578747      4.43724733     -0.20576107
  H      8.41498824      8.31664690      2.44661185
  H      7.17283569      8.18305202      3.71963031
  H      6.70076156      8.57775045      2.04318682
 Cl      6.32423231      7.43473441      6.18752548
 Cl    -45.73076272     36.34329201     39.82960732
 Cl      6.99369382      1.39662712      4.42968788
 Cl     10.24106741      6.35606337      1.38701271
 Cl      4.64129699      6.02921166      0.28355263
