62
Energy =    -96.25292261 au
  N      9.88589128      9.61141568      3.44448148
  C      9.02505652     10.02553372      2.52001586
  N      8.47581846      8.96900213      1.93131326
  C      9.03767455      7.84653083      2.46117843
  C      9.91623013      8.24552270      3.41384960
  C     10.61617801     10.46162831      4.34496668
  C      9.87996815     10.57240950      5.67746966
  C      7.49823915      9.04968963      0.89022096
  H      8.73226504     11.04048288      2.35673618
  H      8.77075986      6.86535748      2.12687783
  H     10.55317999      7.67674003      4.05953074
  H     11.61952862     10.04719820      4.48139406
  H     10.70534935     11.43939508      3.86759524
  H     10.31709332     11.35506608      6.29151181
  H      9.93009723      9.62939895      6.21780739
  H      8.83409961     10.80481375      5.48623149
  H      7.25033019      8.04967234      0.54066123
  H      7.90987188      9.64259572      0.07071843
  H      6.60261121      9.53661828      1.28136954
  N      8.42314949     -0.42809279      3.63668567
  C      7.22291339     -0.93308073      3.89999702
  N      6.49483252     -0.00643971      4.51338450
  C      7.24292012      1.12292144      4.64458361
  C      8.45636896      0.85986742      4.08973080
  C      9.46855001     -1.13480934      2.93807174
  C      9.63019261     -0.59661448      1.52085448
  C      5.14486194     -0.13613475      4.98498371
  H      6.96516006     -1.96103122      3.65269636
  H      6.81719967      2.00497145      5.10097040
  H      9.32307549      1.48045832      3.99552043
  H     10.40168296     -1.02745267      3.49751371
  H      9.16638812     -2.19016724      2.90563046
  H     10.42854094     -1.13413575      1.01764218
  H      9.86873203      0.46589367      1.52517849
  H      8.70969888     -0.74982989      0.96388172
  H      4.80582216      0.85651634      5.29949837
  H      5.10457248     -0.81944994      5.83331259
  H      4.50413005     -0.51934294      4.19238668
  N      6.38076495      6.92162485      6.10364423
  C      6.83307049      8.07642192      6.58062211
  N      7.14106286      7.92068736      7.86362035
  C      6.88287624      6.63062600      8.21669092
  C      6.40390462      5.99925079      7.10863761
  C      5.95380968      6.71580533      4.74057460
  C      6.72956466      5.57787273      4.08974337
  C      7.63289729      8.93226444      8.75611831
  H      6.91000142      8.97840995      5.98920884
  H      7.08944780      6.29419690      9.21805058
  H      6.06947562      4.98981035      6.95734405
  H      4.88900787      6.46647004      4.74112661
  H      6.10428431      7.66327434      4.21641218
  H      6.50146622      5.54350728      3.02792663
  H      6.43291067      4.62963123      4.53332418
  H      7.79983362      5.72147306      4.22037210
  H      8.47490620      9.45549035      8.30632447
  H      7.94007399      8.43931108      9.69020411
  H      6.84612221      9.65539136      8.97254171
 Cl     10.66998804     10.61769204      0.61221534
 Cl      8.23018334      6.98517588     11.28453469
 Cl      4.98322652      3.09683985      5.78970057
 Cl      7.61765096     -3.88631963      2.96496589
 Cl      6.68107703     10.20636275      4.16490969
