#B3LYP/6-31+G(d) OPT FREQ

62, Energy =    -96.29513357 au

0 1
  N      4.54829781      3.97409181      4.25787923
  C      4.53249740      3.20714762      3.17409044
  N      5.17631316      2.07615519      3.43993995
  C      5.60730301      2.11971015      4.73174850
  C      5.20766335      3.31379999      5.24706589
  C      3.98159885      5.29571708      4.34422189
  C      2.57905268      5.24794665      4.94028115
  C      5.44526234      1.01247627      2.51715384
  H      4.17460949      3.55036000      2.20811203
  H      6.19589219      1.33084151      5.15115391
  H      5.38834047      3.76775958      6.19985449
  H      4.64315486      5.89658707      4.97403541
  H      3.95016629      5.69925010      3.32959081
  H      2.17656562      6.25469866      5.00184887
  H      2.60181123      4.82164613      5.94140313
  H      1.92129591      4.64899026      4.31376032
  H      4.83506850      0.13794087      2.74968714
  H      6.50379829      0.74234076      2.61137776
  H      5.22759592      1.35113869      1.50715417
  N     10.06777162      6.11925537      3.95237431
  C      9.47636075      5.58439483      5.01597727
  N      9.56456849      4.26172364      4.94190665
  C     10.24140599      3.94148948      3.80640083
  C     10.56085746      5.11014282      3.18418986
  C     10.16737536      7.52266314      3.64669869
  C     11.52986978      8.07405931      4.05171928
  C      8.97068087      3.33779954      5.86343093
  H      8.90174423      6.10937063      5.76033858
  H     10.39468904      2.91998958      3.52204790
  H     11.02147170      5.30892436      2.23821134
  H     10.01946679      7.62064316      2.56215103
  H      9.37002189      8.04261019      4.18014626
  H     11.58256388      9.13006960      3.80375269
  H     12.31993519      7.55541955      3.51435388
  H     11.69456433      7.95657497      5.12211023
  H      9.67528102      3.07632168      6.65451463
  H      8.69139655      2.43503023      5.31557575
  H      8.08943205      3.80551477      6.29933457
  N      7.46087351      4.24320138      1.09441011
  C      7.09518723      5.50696288      0.93088194
  N      6.88963457      6.05621163      2.11797851
  C      7.13109967      5.11658270      3.07366051
  C      7.49839527      3.97672083      2.43209768
  C      7.85204643      3.32793444      0.05516736
  C      9.37121045      3.30992409     -0.08040565
  C      6.47003637      7.40552273      2.34913524
  H      6.97072637      6.00375672     -0.00854739
  H      7.00967216      5.33433408      4.11850927
  H      7.78745073      3.01180141      2.80783474
  H      7.48246884      2.33334502      0.31702474
  H      7.38278797      3.65442186     -0.87517021
  H      9.66469498      2.76203224     -0.97159774
  H      9.81402999      2.83496525      0.79077330
  H      9.73988140      4.33073688     -0.14806983
  H      7.18950878      8.08732426      1.89310348
  H      6.41528836      7.57826069      3.42181825
  H      5.48817178      7.55943355      1.89838072
 Cl      6.68326046      6.04980701      6.37322653
 Cl    -34.53026468     31.96273554     30.64824945
 Cl      8.56357700      0.91488237      3.56429331
 Cl      9.62062617      6.80278646      0.53352815
 Cl      4.22679817      5.06998931      0.72515217

