#B3LYP/6-31+G(d) OPT FREQ

62, Energy =    -96.29541255 au

0 1
  N      4.89476624      5.25354726      4.10589122
  C      4.75353626      4.33806317      3.15504768
  N      4.96994444      3.13707121      3.68138077
  C      5.24760651      3.29189301      5.00646623
  C      5.19636940      4.62500452      5.27378551
  C      4.77832109      6.67622036      3.91309573
  C      3.36843209      7.15523468      4.24045813
  C      4.97877984      1.88912365      2.97506233
  H      4.63775405      4.58133754      2.10322528
  H      5.50326255      2.45573787      5.62318329
  H      5.41164022      5.17968577      6.16479678
  H      5.50647252      7.15497708      4.57403080
  H      5.01671140      6.88242721      2.86742262
  H      3.30890046      8.23007327      4.09778017
  H      3.11885353      6.92885239      5.27514147
  H      2.64229269      6.67693575      3.58598236
  H      4.08581739      1.30729386      3.21046466
  H      5.86222601      1.32369993      3.28996307
  H      5.01557154      2.08344391      1.90590765
  N      9.46292515      4.29707975      6.07594109
  C      9.81760582      3.35492341      5.20841451
  N     10.66128136      3.87752142      4.32608230
  C     10.85584175      5.18768948      4.63798237
  C     10.10390321      5.45084736      5.74185803
  C      8.52888970      4.13385881      7.15968255
  C      9.25578975      3.92416157      8.48350560
  C     11.22927469      3.20757103      3.19428373
  H      9.38103418      2.36688609      5.15943373
  H     11.44817045      5.82285246      4.01050539
  H      9.92735057      6.36448639      6.27067410
  H      7.91470686      5.04105399      7.19539096
  H      7.89960957      3.27433200      6.92450549
  H      8.52956719      3.81664019      9.28384820
  H      9.89200627      4.77743613      8.70753922
  H      9.87037480      3.02627204      8.44691159
  H     12.26013025      2.91400402      3.39974783
  H     11.22139462      3.91111147      2.35174267
  H     10.63703207      2.32403199      2.96967857
  N      8.04185035      4.30217510      1.49214422
  C      8.16076958      5.61426009      1.32981968
  N      8.05139993      6.21031035      2.50627176
  C      7.86708171      5.25285910      3.45503869
  C      7.86029920      4.05121002      2.82035125
  C      8.02946487      3.34119411      0.41995911
  C      9.43521030      3.07477464     -0.11169856
  C      8.20374124      7.61001518      2.77098005
  H      8.30359662      6.11179083      0.39337491
  H      7.72416648      5.52481700      4.48286007
  H      7.76261797      3.05648155      3.21314332
  H      7.57960644      2.42169546      0.80086924
  H      7.38705606      3.74898054     -0.36566534
  H      9.38721466      2.64872933     -1.11005734
  H      9.96577592      2.38352636      0.53769886
  H      9.99904176      4.00366335     -0.14706231
  H      9.23040257      7.90131970      2.54071027
  H      7.99760122      7.78770069      3.82503842
  H      7.51684767      8.18619138      2.15142280
 Cl      7.19527525      7.04884584      6.31228112
 Cl    -44.82967243     36.56053548     39.31681493
 Cl      7.74329164      1.02174693      4.58494483
 Cl     11.00829191      5.93352438      1.41383605
 Cl      5.39422509      5.67056944      0.44332870

