62
Energy =    -96.26974777 au
  N      4.97276533      5.82745287      3.70866817
  C      3.93476601      5.19318281      4.23630009
  N      2.86289957      5.97719697      4.19992717
  C      3.22241417      7.13638805      3.57532572
  C      4.54670522      7.04570349      3.27155704
  C      6.31550741      5.29752184      3.63809017
  C      6.32063231      3.93075828      2.94573477
  C      1.52824727      5.55795853      4.53169197
  H      3.95742834      4.21828710      4.67611782
  H      2.52390647      7.92888048      3.39576076
  H      5.18712367      7.75180199      2.77062860
  H      6.92506378      6.02120303      3.09552015
  H      6.68779317      5.20892215      4.66573562
  H      7.34544178      3.63934469      2.70188870
  H      5.70340445      3.97882561      2.04359056
  H      5.89759723      3.15072768      3.58819927
  H      1.22359580      4.78351241      3.82023684
  H      0.84642767      6.40347548      4.45460075
  H      1.49911776      5.15479974      5.54793751
  N      8.82959205      7.20856261      5.51720969
  C      7.72381497      7.71904324      6.05596037
  N      7.12438404      8.48398704      5.14967902
  C      7.87012351      8.47735894      4.00973096
  C      8.94199204      7.67104604      4.23949107
  C      9.73968311      6.27896557      6.14092061
  C      9.09808493      4.90232269      6.27292753
  C      5.88288829      9.17702689      5.33911451
  H      7.30571103      7.46888084      7.01121567
  H      7.54954057      9.01017129      3.13073815
  H      9.76567035      7.36454035      3.61777082
  H     10.62437334      6.21530276      5.50261727
  H     10.01873828      6.66561443      7.12587190
  H      9.73575537      4.25664499      6.86989385
  H      8.98125998      4.45797998      5.28774328
  H      8.12195333      4.97780872      6.74733362
  H      5.17223794      8.48181498      5.79352185
  H      5.52018638      9.51692677      4.37080620
  H      6.02052156     10.03614123      5.99861470
  N      8.94205353      5.35811252      0.65844818
  C      7.66631507      5.20287637      0.28587775
  N      7.06106138      6.39241040      0.30776114
  C      7.97883066      7.32863109      0.67572601
  C      9.15779726      6.68138873      0.89653707
  C      9.96146740      4.34590664      0.75453300
  C     10.79344480      4.30428374     -0.52118882
  C      5.68497760      6.67172139     -0.02025541
  H      7.19486711      4.27136243      0.04588673
  H      7.69216951      8.35761229      0.80057894
  H     10.11159736      7.02346879      1.25136409
  H     10.60095662      4.61849170      1.60908164
  H      9.48435771      3.38088584      0.93737945
  H     11.56715522      3.54944137     -0.42997270
  H     11.27378846      5.26629780     -0.67981111
  H     10.17203428      4.07275152     -1.38835331
  H      5.53745090      6.62652274     -1.10431796
  H      5.46274116      7.67886667      0.33395536
  H      5.01322143      5.95388599      0.46086713
 Cl     11.55992937      6.00789576      3.09135817
 Cl      3.11564301      4.08158897      1.78534723
 Cl      5.30654546      6.14173680      6.75051120
 Cl     -9.33257844    -19.70868050     39.02850370
 Cl      5.95850903      9.68984848      1.61052138
