#B3LYP/6-31+G(d) OPT FREQ

62, Energy =    -96.29192988 au

0 1
  N      4.63249751      4.43392375      4.36709205
  C      4.75059458      3.92874889      3.14412856
  N      5.18859083      2.67904658      3.23572174
  C      5.35131235      2.37734745      4.55390723
  C      5.00018564      3.48248207      5.26571378
  C      4.21155365      5.77726408      4.67342109
  C      2.77189118      5.79734888      5.17442586
  C      5.51873973      1.81185783      2.14305123
  H      4.59647683      4.51199441      2.23531503
  H      5.72775439      1.42785210      4.87099133
  H      5.03140026      3.67955990      6.31689963
  H      4.88941981      6.16831851      5.43854140
  H      4.30025174      6.35944331      3.75463848
  H      2.48212976      6.81872475      5.40290169
  H      2.66870567      5.19806515      6.07673076
  H      2.10035801      5.40863254      4.41154363
  H      4.84919445      0.95090811      2.12302129
  H      6.54953437      1.45591282      2.28124279
  H      5.43263106      2.36562196      1.21174300
  N     10.00116824      3.82902776      5.79386791
  C      9.77268557      5.09171318      6.14710794
  N     10.05397496      5.88491454      5.12118547
  C     10.47167337      5.11441611      4.08085227
  C     10.43358463      3.82049178      4.50113750
  C      9.71170701      2.67414337      6.60636513
  C      8.24086249      2.30480710      6.46287365
  C      9.88350187      7.30852101      5.08645780
  H      9.35773405      5.41172887      7.08213700
  H     10.70926953      5.56524508      3.13324676
  H     10.61872561      2.90486000      3.97777535
  H     10.34141578      1.84964338      6.26584365
  H      9.95542243      2.91468213      7.64567743
  H      7.98473508      1.50866957      7.15607894
  H      8.06236640      1.96728967      5.44461764
  H      7.62112489      3.17454184      6.66322082
  H      9.90869480      7.62438789      4.03953597
  H     10.68584559      7.80558949      5.63397726
  H      8.92772953      7.55921729      5.54442308
  N      7.89834252      4.91552784      1.41780424
  C      7.57902943      6.20184380      1.46332924
  N      7.28390433      6.53200184      2.71046221
  C      7.42745170      5.42700792      3.49178847
  C      7.81869970      4.40909579      2.68178934
  C      8.37033735      4.19329850      0.26610999
  C      9.89573666      4.15900278      0.26527884
  C      6.87268973      7.83322059      3.14304365
  H      7.55298815      6.86914120      0.62733608
  H      7.25386674      5.45357307      4.55173523
  H      8.05561006      3.38257606      2.89827767
  H      7.97043805      3.17719638      0.31079283
  H      7.99085049      4.69379623     -0.62732751
  H     10.26617340      3.77808250     -0.68248523
  H     10.24813155      3.51700272      1.06817511
  H     10.28297609      5.16263850      0.42553383
  H      7.64945490      8.55634318      2.89045631
  H      6.71332662      7.81491297      4.21848252
  H      5.94656939      8.10202131      2.63201302
 Cl      6.90709936      5.83768657      6.80764950
 Cl    -38.25892410     33.09829631     34.50438431
 Cl      8.56919463      1.15143710      3.19998221
 Cl     10.19369889      7.43174927      1.76244599
 Cl      4.69110515      6.12012457      0.93698157

