62
Energy =    -96.24401143 au
  N      5.57027981      2.41748989      3.46143397
  C      5.03578488      1.36967986      2.82792276
  N      6.01174947      0.51820096      2.50169881
  C      7.20664371      1.08194170      2.85612405
  C      6.93516011      2.26780767      3.45299898
  C      4.86553241      3.61330350      3.85088831
  C      5.39789827      4.18543231      5.15740720
  C      5.84133333     -0.64613974      1.68303885
  H      3.98934842      1.15611784      2.76855033
  H      8.14697433      0.62061687      2.61176253
  H      7.58767792      3.00372060      3.88418004
  H      4.96499649      4.34556942      3.04160369
  H      3.80579337      3.35999886      3.94051214
  H      4.82316230      5.06644360      5.42920710
  H      6.44262087      4.47169527      5.06659956
  H      5.30840145      3.45306193      5.95702378
  H      6.82095020     -1.03730387      1.41811052
  H      5.30327494     -0.35107427      0.77876230
  H      5.26702005     -1.41190252      2.20743532
  N     10.77669733      1.79040342      5.16020311
  C     10.57765899      2.32090412      3.95783893
  N     11.69165855      2.91782012      3.55434317
  C     12.61841600      2.80824161      4.54880967
  C     12.04691217      2.09589480      5.55442205
  C      9.81649345      0.96543652      5.84487826
  C      9.88091254     -0.46015984      5.30434199
  C     11.83847232      3.55487258      2.27903824
  H      9.70786896      2.17008182      3.35546678
  H     13.59700924      3.23551999      4.47186623
  H     12.43942149      1.79809485      6.50480351
  H     10.03144660      0.99288134      6.91576912
  H      8.82854839      1.39664703      5.66732743
  H      9.05367298     -1.04844425      5.68963210
  H     10.81538215     -0.93708673      5.59180223
  H      9.82879202     -0.43993137      4.21804219
  H     11.43974347      2.87861462      1.51939957
  H     12.88950656      3.75589610      2.08369722
  H     11.27526000      4.48998437      2.26819670
  N      7.31741163      5.29822003      1.40868132
  C      8.02156612      4.15286776      1.27988550
  N      7.56571259      3.48407185      0.20465576
  C      6.56641874      4.21921621     -0.35658376
  C      6.41382478      5.34754769      0.38019829
  C      7.54421662      6.32273400      2.39211981
  C      8.35400529      7.47735234      1.80646075
  C      7.96351191      2.18098977     -0.23905931
  H      8.78292140      3.82911096      1.95517970
  H      6.02585848      3.87954951     -1.21418388
  H      5.72474383      6.15809007      0.26671271
  H      6.57660077      6.69010300      2.74528645
  H      8.08305734      5.86920758      3.22988382
  H      8.50317350      8.24048556      2.56451159
  H      7.83842598      7.92224103      0.95734199
  H      9.32770928      7.12391923      1.47604478
  H      8.38549217      2.23715890     -1.24433401
  H      7.07859447      1.54293441     -0.26445419
  H      8.70391877      1.75419789      0.43842794
 Cl      9.17367328      4.45398688      4.68541775
 Cl    -44.31809458     31.18643213     33.67773957
 Cl     10.28479291      0.47955944      1.73560926
 Cl     27.79647205     33.30025699      2.54430020
 Cl      4.52303641      2.25680429      0.51702932
