62
Energy =    -96.29440686 au
  N      5.53999251      5.36410680      3.94397742
  C      5.07575468      4.27693004      3.34045083
  N      5.28002346      3.22708116      4.12920431
  C      5.88210185      3.66012372      5.27243883
  C      6.04323895      5.00623206      5.15557690
  C      5.51969103      6.69346720      3.39069520
  C      4.26535896      7.44256303      3.82708488
  C      4.96962182      1.86026125      3.82686006
  H      4.73778253      4.26249887      2.31369542
  H      6.18718619      2.97316109      6.03434296
  H      6.52759976      5.72118773      5.79016884
  H      6.41402773      7.21005261      3.75196183
  H      5.54643951      6.59226260      2.30362017
  H      4.27552469      8.44239928      3.40352486
  H      4.23074804      7.52689671      4.91141243
  H      3.37087759      6.92709580      3.48176148
  H      4.07700564      1.54091529      4.36790096
  H      5.81531993      1.23895002      4.14397093
  H      4.80115857      1.75639161      2.75790238
  N     11.49028580      4.86617094      4.84703065
  C     11.85912937      3.68118987      4.36577969
  N     10.97599303      2.76575734      4.74679698
  C      9.99346940      3.38713723      5.45765776
  C     10.31241225      4.70586809      5.52084650
  C     12.13925038      6.12483538      4.57814688
  C     11.47034921      6.80830644      3.39201094
  C     10.99294027      1.38567199      4.36171872
  H     12.74678764      3.49038703      3.80006637
  H      9.14584389      2.84207130      5.82343711
  H      9.77514814      5.54227254      5.92427437
  H     12.06109359      6.74998000      5.47164641
  H     13.19304812      5.92384263      4.36550835
  H     12.04128320      7.68061802      3.08603514
  H     10.46847542      7.11856149      3.67562481
  H     11.40977473      6.10445171      2.56565817
  H     10.02389263      0.94760624      4.60188635
  H     11.78305000      0.84478351      4.88567375
  H     11.16733033      1.33597816      3.28714820
  N      8.06880609      3.07188986      1.48632170
  C      8.23088835      4.20346291      0.81620023
  N      8.39872844      5.19932859      1.67332388
  C      8.34424269      4.69029464      2.93251501
  C      8.13693282      3.35236932      2.81878386
  C      7.82474857      1.77433608      0.91139685
  C      8.80487415      0.74577640      1.45854602
  C      8.53365207      6.58708378      1.34097280
  H      8.23826051      4.29737977     -0.25024377
  H      8.45004105      5.32541767      3.79071213
  H      8.04544783      2.58900381      3.56747333
  H      6.79358634      1.48271860      1.13625901
  H      7.92556171      1.87005551     -0.17184979
  H      8.72073070     -0.18467833      0.90303721
  H      8.60267603      0.54746724      2.50732500
  H      9.81647824      1.13144731      1.35795244
  H      9.47623811      6.76360067      0.82139245
  H      8.51142231      7.16649740      2.26183516
  H      7.70288536      6.88047578      0.69772343
 Cl      8.36793955      7.40315756      5.07939416
 Cl    -47.23632133     38.99230756     40.28316241
 Cl      7.74367078      0.81208701      5.23091427
 Cl     11.29368601      3.58822881      1.69443956
 Cl      5.49527803      4.79675490      0.32254873
