#B3LYP/6-31+G(d) OPT FREQ

62, Energy =    -96.23657365 au

0 1
  N      2.44782366     11.46949662      5.04685612
  C      2.66249470     10.97366736      3.83285820
  N      1.57246880     10.32369687      3.43446543
  C      0.63211166     10.42562751      4.41529518
  C      1.18194069     11.14956807      5.42759644
  C      3.40588873     12.23239502      5.80619564
  C      3.22896252     13.72530843      5.55404757
  C      1.42452268      9.57493823      2.22144123
  H      3.63717876     10.98444143      3.35729450
  H     -0.31793617      9.94254749      4.33685841
  H      0.80383966     11.40773126      6.39523060
  H      3.24661073     12.00307883      6.86209117
  H      4.39973277     11.90692299      5.48743771
  H      3.95619378     14.28081126      6.13843718
  H      2.23127597     14.04766561      5.84487403
  H      3.38363160     13.95283970      4.50170256
  H      0.67632371     10.03459490      1.57391743
  H      1.09684466      8.56480720      2.48490385
  H      2.37999757      9.53213154      1.70521176
  N      5.28637950      9.43392891      7.47937933
  C      4.21600563      9.06392115      6.76739524
  N      4.62389719      8.40296419      5.68387720
  C      5.98348743      8.36319378      5.69797639
  C      6.40076540      8.99515218      6.82490248
  C      5.26546965     10.10648255      8.75292810
  C      5.58386560      9.13515504      9.88621494
  C      3.82853129      7.91024021      4.59981799
  H      3.20660652      9.31716980      7.03648422
  H      6.54554435      7.91818051      4.90428068
  H      7.39007707      9.18990239      7.18230981
  H      5.99657219     10.91854983      8.73247667
  H      4.26327480     10.52132360      8.89137042
  H      5.58887631      9.66950976     10.83148777
  H      6.55683611      8.66914815      9.74217730
  H      4.82545353      8.35775008      9.93627368
  H      4.04084840      6.85443098      4.42884676
  H      4.09814328      8.47474408      3.70494692
  H      2.76670346      8.02762352      4.80759078
  N     -0.18250151      7.90056414      7.67396889
  C     -0.89589594      7.16189659      6.81243200
  N     -1.89003016      7.91550181      6.31217173
  C     -1.77505117      9.16740955      6.85349169
  C     -0.72187595      9.15128720      7.70668857
  C      0.99594707      7.50726083      8.40841557
  C      1.79193846      6.44012797      7.66980329
  C     -2.72805959      7.52080115      5.21877110
  H     -0.71517922      6.14024945      6.55822049
  H     -2.44243939      9.96234403      6.59371655
  H     -0.27650634      9.92756824      8.29659694
  H      1.58750020      8.41892743      8.54697651
  H      0.69702671      7.14631652      9.40076369
  H      2.80826817      6.40351304      8.05176022
  H      1.82141505      6.67239380      6.60841056
  H      1.34478012      5.45604723      7.79343962
  H     -2.08370542      7.23486707      4.38156001
  H     -3.36128907      8.35339963      4.92431485
  H     -3.35062996      6.66958322      5.49576463
 Cl     -2.89470707      3.31214857     31.29756271
 Cl      0.46067394      7.25786536      4.35762677
 Cl      1.99305958     10.76264100      8.60457565
 Cl      8.06198922    -21.52827728    -15.32779036
 Cl      5.71266762     10.56383276      3.73627254

