#B3LYP/6-31+G(d) OPT FREQ

62, Energy =    -96.29527295 au

0 1
  N      4.50915961      4.59268400      3.96722238
  C      4.71430623      3.88337382      2.86422642
  N      5.17069519      2.68293102      3.20551951
  C      5.25138087      2.62410802      4.56435823
  C      4.83081285      3.82610064      5.04348584
  C      4.05088402      5.95767641      4.00488706
  C      2.54522842      6.01879150      4.23686466
  C      5.57761687      1.64193348      2.30728523
  H      4.64726250      4.29954838      1.86242111
  H      5.63715834      1.76117710      5.06538319
  H      4.79774500      4.21967615      6.03898491
  H      4.58359875      6.45671893      4.81972446
  H      4.30628351      6.41225242      3.04552013
  H      2.22570849      7.05600925      4.27267719
  H      2.28421339      5.54319564      5.18010458
  H      2.01531484      5.51967736      3.42788325
  H      4.86013769      0.81955438      2.32156943
  H      6.55259087      1.26696346      2.63693842
  H      5.64891970      2.04647915      1.30063022
  N      9.12707364      4.36361224      6.00019775
  C      9.90454177      3.81840259      5.07165162
  N     10.63589821      4.77178492      4.50572063
  C     10.31867093      5.95948886      5.09035393
  C      9.37244761      5.70113722      6.03438460
  C      8.16823877      3.65407730      6.80716444
  C      8.77545123      3.25520168      8.14780282
  C     11.56718507      4.61404694      3.42876790
  H      9.84434700      2.78511263      4.76951577
  H     10.74188113      6.87902322      4.74215866
  H      8.81353701      6.35576764      6.67209135
  H      7.31244612      4.31943052      6.95743861
  H      7.86088956      2.77084497      6.24420045
  H      8.03088692      2.73419327      8.74235782
  H      9.10074903      4.13694972      8.69603631
  H      9.62810964      2.59466256      8.00121937
  H     11.42759208      3.63868813      2.97027506
  H     12.59172719      4.70454680      3.79320630
  H     11.37399605      5.41682652      2.70370690
  N      8.00112609      4.96563857      1.57499430
  C      7.77300754      6.27185210      1.63292121
  N      7.41418486      6.59663681      2.86460655
  C      7.41861938      5.46723347      3.62357157
  C      7.79086399      4.43972523      2.81633878
  C      8.35454332      4.24543597      0.37989762
  C      9.84878658      4.35388428      0.08971958
  C      7.15442115      7.91646896      3.35760005
  H      7.85178240      6.95055210      0.80947646
  H      7.12285433      5.50143185      4.65452013
  H      7.93308901      3.39827227      3.03568420
  H      8.06188977      3.20192127      0.51765519
  H      7.76719102      4.67139103     -0.43778563
  H     10.05247001      4.09916431     -0.94634315
  H     10.40903182      3.67973578      0.73131088
  H     10.18800971      5.36902538      0.28172859
  H      8.06943004      8.50710544      3.28225539
  H      6.84790716      7.84248034      4.39942129
  H      6.36939022      8.38961138      2.76778016
 Cl      6.14742362      6.36113099      6.67274034
 Cl    -43.27101459     35.94537592     38.22880503
 Cl      8.33047728      1.22501535      4.10160924
 Cl     10.41175384      7.30837201      2.05926342
 Cl      5.15637318      5.81469203      0.48215062

