62
Energy =    -96.25673334 au
  N      1.63129940      7.13829228      5.49730379
  C      0.48695569      7.65497030      5.05576035
  N      0.23330289      7.14910190      3.85511895
  C      1.23417931      6.28769180      3.51979058
  C      2.11315006      6.27881708      4.55701053
  C      2.26943398      7.45958827      6.74954858
  C      1.41886395      6.99546895      7.92513798
  C     -0.87335095      7.46517710      3.00039214
  H     -0.14986647      8.32674498      5.63632455
  H      1.26057449      5.83255483      2.54841809
  H      3.05947346      5.79029503      4.68374629
  H      3.25718234      6.99202158      6.73761985
  H      2.39235038      8.54433807      6.80542658
  H      1.93367363      7.20286620      8.85933612
  H      1.21837206      5.92740694      7.86288013
  H      0.47266216      7.53545675      7.91918352
  H     -1.28671428      8.43086397      3.28057042
  H     -1.65040342      6.70419885      3.08914746
  H     -0.50285383      7.47725684      1.96913238
  N      4.71262651      8.01967970      1.60615183
  C      4.95007516      6.76134715      1.96068805
  N      6.20511863      6.45220710      1.65925407
  C      6.79739056      7.53834425      1.09808900
  C      5.85984975      8.52405424      1.06606322
  C      3.48285882      8.73886527      1.83426471
  C      3.43314040      9.24136571      3.27400290
  C      6.88070001      5.21423909      1.92365303
  H      4.22875743      6.11095125      2.41312349
  H      7.82154571      7.47746325      0.75550765
  H      5.91959220      9.52925620      0.70313155
  H      3.44588602      9.57568414      1.13327121
  H      2.64004927      8.07136306      1.61164116
  H      2.43668738      9.60068681      3.51349485
  H      4.14500843     10.05167811      3.42463749
  H      3.69224509      8.43501586      3.95515854
  H      6.97324910      5.08024310      3.00245859
  H      7.87265945      5.27147696      1.46419192
  H      6.31824616      4.37918688      1.50741557
  N      5.61145652      4.01263672      7.77905813
  C      5.94407443      3.33811281      8.87459052
  N      6.56395379      4.16128795      9.71179916
  C      6.62794440      5.39635880      9.13332040
  C      6.02441201      5.30161197      7.91860102
  C      4.88640045      3.50879694      6.63692671
  C      3.42092206      3.28514430      6.99227939
  C      7.07387898      3.77786000     10.99770961
  H      5.77105989      2.29281801      9.12668883
  H      7.08715901      6.23334670      9.61721734
  H      5.87501443      6.01468586      7.12442571
  H      4.98155503      4.26061431      5.84527424
  H      5.34373308      2.57055465      6.31547640
  H      2.88330292      2.93040551      6.11780048
  H      2.96821958      4.21715362      7.32084449
  H      3.32862459      2.54801049      7.78697761
  H      8.15653275      3.90251297     11.02750479
  H      6.81668236      2.72159414     11.15078971
  H      6.62101002      4.38719806     11.77976999
 Cl      9.60638310      6.24047860      0.19525136
 Cl      5.34461678      6.42604563      4.95656058
 Cl     -1.27092862      9.21170515      7.14682268
 Cl      1.10652805      6.88553998      0.38289988
 Cl      5.92558222      0.73842977     10.59100482
