62
Energy =    -96.27085681 au
  N      8.99439010      8.98991972      4.29556175
  C      9.50769610      7.98573068      3.59044293
  N     10.01851143      7.09214448      4.43043803
  C      9.82392545      7.53750051      5.70415291
  C      9.17846463      8.73237363      5.62283042
  C      8.38598759     10.16829779      3.72473626
  C      6.96090247     10.38267818      4.21534113
  C     10.69819049      5.88267583      4.06257639
  H      9.43701670      7.86869155      2.50958023
  H     10.14449269      6.96079827      6.54908782
  H      8.77359945      9.37032638      6.39603367
  H      8.99629636     11.03441912      4.00186060
  H      8.41204325     10.04403031      2.63902292
  H      6.58740760     11.32734295      3.82896086
  H      6.93297086     10.41707785      5.30494846
  H      6.31157907      9.58399745      3.87065402
  H     10.23410485      5.45612718      3.17646986
  H     10.65732643      5.18603185      4.90427133
  H     11.74581365      6.09566511      3.84001871
  N      6.98348064      0.52667383      7.41983178
  C      7.97009506      0.31136995      8.28143154
  N      8.91026587      1.23234253      8.08621084
  C      8.50757330      2.05343689      7.07437914
  C      7.29327542      1.61149637      6.65358908
  C      5.76697599     -0.24416194      7.34481412
  C      4.55694368      0.64557802      7.60389065
  C     10.14906030      1.37952095      8.79585437
  H      7.96925534     -0.51802898      8.98624733
  H      9.11701440      2.88748649      6.77541786
  H      6.61962084      2.01211949      5.91184514
  H      5.69415379     -0.68224598      6.34497256
  H      5.84975268     -1.04446539      8.08688705
  H      3.64729720      0.05562675      7.53454949
  H      4.50978825      1.44861636      6.87090221
  H      4.61485057      1.07957348      8.59934171
  H      9.97538422      1.33758562      9.87041774
  H     10.58022508      2.34451937      8.52532494
  H     10.84331697      0.58347424      8.52163431
  N      7.10562291      5.77216560      5.81650315
  C      7.41587983      4.91027366      4.85232555
  N      7.20708599      5.47697925      3.66972509
  C      6.70134593      6.72337168      3.88568380
  C      6.64013483      6.91203947      5.23223601
  C      7.24103424      5.48427467      7.22763275
  C      6.68689148      6.58909464      8.10889171
  C      7.38874620      4.87458704      2.38141753
  H      7.83499317      3.93961354      5.01341703
  H      6.44578014      7.36066981      3.06480338
  H      6.32602024      7.76422222      5.79896727
  H      6.70594006      4.54683883      7.41111590
  H      8.30394846      5.31661048      7.43602557
  H      6.84382805      6.31909925      9.14987101
  H      5.61835063      6.71158957      7.94499117
  H      7.17858562      7.54281758      7.93012335
  H      7.77673508      5.62380372      1.68271335
  H      6.43297324      4.49353662      2.01809290
  H      8.08248225      4.04087613      2.46530427
 Cl      7.15963437     10.24321881      7.61490593
 Cl      7.24678635     -2.35085091      9.77522138
 Cl      5.19258081      3.33885700      4.86193930
 Cl     10.69267742      4.49389480      7.10608868
 Cl      8.76850093      7.44018931      0.57963155
