#B3LYP/6-31+G(d) OPT FREQ

62, Energy =    -96.25892413 au

0 1
  N      9.85595051      4.71997589      2.95776354
  C      9.76031372      4.27822934      4.20859786
  N     10.72055373      4.83592806      4.93653701
  C     11.44659419      5.66041945      4.13291235
  C     10.90088000      5.58823709      2.88613435
  C      8.97897233      4.39122739      1.86204618
  C      7.71394005      5.24025763      1.91571298
  C     10.96467648      4.59669776      6.32891771
  H      9.00505629      3.61869492      4.60200445
  H     12.24172990      6.25566517      4.53723255
  H     11.18365490      6.01097054      1.93713163
  H      9.53615326      4.59547656      0.93472851
  H      8.72371478      3.33110940      1.92615584
  H      7.05075368      4.95428957      1.10436439
  H      7.96653175      6.28990494      1.79553799
  H      7.19468053      5.10522275      2.86316498
  H     10.04241877      4.27235642      6.80412191
  H     11.34103742      5.52369714      6.77704473
  H     11.72406450      3.82179034      6.44872099
  N      8.64321145      7.01302744      7.13348256
  C      9.37481234      8.12231549      7.06931803
  N      9.51280097      8.47806156      5.80038949
  C      8.81271448      7.60048644      5.03091257
  C      8.25958453      6.68343750      5.86600650
  C      8.20334556      6.35144522      8.33467983
  C      6.89473549      6.96789452      8.82251464
  C     10.25006306      9.62666282      5.37136941
  H      9.85690243      8.60074242      7.89504191
  H      8.76408776      7.69084365      3.96499613
  H      7.65330564      5.82222704      5.67237878
  H      8.07430669      5.28905012      8.11171362
  H      8.98506395      6.46762391      9.08801273
  H      6.67589066      6.64491123      9.83637338
  H      6.07410961      6.67499712      8.17278967
  H      6.98022986      8.05298283      8.79565231
  H      9.83232576     10.50549469      5.86740789
  H     10.17975777      9.73016597      4.29057509
  H     11.29223655      9.49434789      5.67004918
  N      7.41670094     -1.35425754      6.26448869
  C      7.95343069     -0.13933461      6.26471389
  N      9.27354490     -0.25103754      6.16741260
  C      9.58380344     -1.58006376      6.10098962
  C      8.41421106     -2.27274580      6.15906679
  C      6.01216612     -1.68256794      6.31460990
  C      5.33194952     -1.31439347      5.00123090
  C     10.18841173      0.85611291      6.14567808
  H      7.45192974      0.81586060      6.33764045
  H     10.59334059     -1.92573523      6.01870517
  H      8.17157642     -3.32900941      6.17454824
  H      5.95032155     -2.76585643      6.48954305
  H      5.55313150     -1.13919239      7.14384302
  H      4.27525341     -1.55679648      5.06089525
  H      5.76872700     -1.88343437      4.18450807
  H      5.43856409     -0.25147729      4.79278166
  H     10.71694440      0.89303054      5.19240801
  H     10.91424510      0.76183044      6.95345603
  H      9.60498256      1.77227279      6.27804830
 Cl      6.71963257     -4.92075373      6.56376216
 Cl      7.67729534      3.03984286      6.40563706
 Cl      7.67405623     10.13491726      7.63773863
 Cl     12.35535538      7.48195533      6.86995625
 Cl     11.08085625      5.44911170     -0.39293443

