62
Energy =    -96.25435037 au
  N      3.25307584     11.33509329      6.96259514
  C      3.30909948     12.51911781      6.33689149
  N      4.27265398     13.25844736      6.91289278
  C      4.69894045     12.59076690      8.03786664
  C      4.06412080     11.39696991      8.06764501
  C      2.29666403     10.29356825      6.68840896
  C      2.35865931      9.82540408      5.23879490
  C      4.53562815     14.62569026      6.57386163
  H      2.92953411     12.71492526      5.35667894
  H      5.41758313     13.01424750      8.70848015
  H      4.11334236     10.57984724      8.76165171
  H      2.51218718      9.47350881      7.37786424
  H      1.30025687     10.69785711      6.89465659
  H      1.71008545      8.96288072      5.11032637
  H      3.37091011      9.54547658      4.95814148
  H      2.01614381     10.60691716      4.56693826
  H      5.27662927     15.03423210      7.25800522
  H      3.60364912     15.19154637      6.65960887
  H      4.90581996     14.69925407      5.55002145
  N      1.69194122      8.05893961     11.63940876
  C      0.79402083      8.32322153     10.68845147
  N      0.87581316      9.61439761     10.36094516
  C      1.77704726     10.20721204     11.20126857
  C      2.28667800      9.23641645     11.99573700
  C      1.85640706      6.77923353     12.27725793
  C      2.38654952      5.73434411     11.30116130
  C     -0.02914871     10.28774576      9.47589923
  H      0.27366104      7.58424378     10.11591933
  H      1.99464834     11.25422542     11.14800424
  H      3.03475292      9.28205270     12.75968388
  H      2.55528423      6.90678965     13.10596784
  H      0.87953392      6.48417346     12.67247247
  H      2.71018047      4.84792323     11.83774100
  H      3.22946063      6.14056910     10.75217013
  H      1.61814669      5.45256574     10.59185342
  H     -0.18043216      9.68523382      8.58175612
  H      0.37081507     11.26091424      9.20018732
  H     -0.99214565     10.40824605      9.97958571
  N      6.04662979      8.95912591      5.55160458
  C      5.31264237      8.32253134      6.46316556
  N      4.98580365      7.11985510      5.99063439
  C      5.53714084      6.98889769      4.74609271
  C      6.20295365      8.14338180      4.47414030
  C      6.60604126     10.28598194      5.65680859
  C      7.49588880     10.41055686      6.88537158
  C      4.19142573      6.15264561      6.69302927
  H      4.99277389      8.67169462      7.43143639
  H      5.41523713      6.10200440      4.16001300
  H      6.77389224      8.49153267      3.62169089
  H      7.17663260     10.45274272      4.72942869
  H      5.78827186     11.01031990      5.71008548
  H      7.92145463     11.40862993      6.92080790
  H      8.31072115      9.69342273      6.82899649
  H      6.93156335     10.23770836      7.79963156
  H      4.76953839      5.24671008      6.87907204
  H      3.30664599      5.89562389      6.10913602
  H      3.88809144      6.59657011      7.64451720
 Cl      3.73216213      8.28089009      9.23742132
 Cl      7.90039194     10.09499050      2.65498992
 Cl      1.32530292     13.60063839      7.14194231
 Cl     -1.27324614      8.25090441     12.06249822
 Cl     12.59066417    -31.06889513      3.03382047
