62
Energy =    -96.29554361 au
  N      4.85021009      5.25256734      4.10406121
  C      4.74511956      4.30210247      3.18336368
  N      4.94701294      3.12240045      3.76079678
  C      5.17878093      3.32707285      5.08787613
  C      5.11414280      4.66875889      5.30387142
  C      4.73813728      6.66709218      3.85631137
  C      3.32735115      7.16207378      4.15466566
  C      4.98757773      1.85002492      3.10074545
  H      4.65886373      4.50401154      2.11921668
  H      5.41322790      2.51626841      5.74534094
  H      5.29788403      5.25583515      6.18078415
  H      5.46245106      7.16869691      4.50476481
  H      4.98526312      6.83319185      2.80581212
  H      3.27280917      8.23119260      3.97241303
  H      3.06919202      6.97467738      5.19492592
  H      2.60447527      6.66254019      3.51262781
  H      4.09527969      1.26639082      3.33414641
  H      5.86916187      1.30762108      3.45824090
  H      5.05027261      2.00657882      2.02663726
  N      9.44637498      4.33873318      5.99463369
  C      9.89966179      3.41470983      5.15490649
  N     10.75449741      3.98050761      4.31043392
  C     10.85426103      5.30196501      4.62081211
  C     10.03388457      5.52613321      5.68399310
  C      8.46747854      4.11961301      7.02795768
  C      9.13906629      3.89100478      8.37756179
  C     11.41994769      3.34180171      3.21434609
  H      9.52413206      2.40339860      5.10891346
  H     11.44082749      5.96874044      4.02230656
  H      9.77407826      6.43058488      6.19484016
  H      7.82755813      5.00763247      7.06190168
  H      7.87755247      3.24868355      6.73776107
  H      8.38010261      3.74447862      9.14038124
  H      9.74378182      4.75242368      8.65284830
  H      9.77523601      3.00829748      8.34502219
  H     12.46779274      3.15701656      3.45670923
  H     11.36903464      4.02115125      2.35240859
  H     10.92462087      2.39965865      2.99436108
  N      8.04873459      4.23512431      1.53549422
  C      8.14681189      5.54091565      1.31688835
  N      8.01092907      6.18560617      2.46456126
  C      7.82632134      5.26777533      3.45174841
  C      7.85007744      4.03953613      2.87077490
  C      8.06739831      3.22928357      0.50530641
  C      9.48054193      2.98907731     -0.01790603
  C      8.14018825      7.59769682      2.66914202
  H      8.29347458      5.99901862      0.36117786
  H      7.66252973      5.58125956      4.46477586
  H      7.75829198      3.06208285      3.30576720
  H      7.64923183      2.31266974      0.92609103
  H      7.41097242      3.58147759     -0.29510748
  H      9.44653990      2.52771904     -1.00088892
  H     10.03230610      2.33776959      0.65381972
  H     10.01485870      3.93334239     -0.08564157
  H      9.16004203      7.89579277      2.41820221
  H      7.93862801      7.81586275      3.71631151
  H      7.43932605      8.13594569      2.03131264
 Cl      7.12961945      7.09756696      6.26230296
 Cl    -45.07219236     36.72807851     39.50015649
 Cl      7.72969126      1.11788923      4.81028789
 Cl     10.97709504      5.96981848      1.36367686
 Cl      5.38925002      5.49968962      0.40288476
