62
Energy =    -96.22504929 au
  N      3.14531622     10.35127465      5.84337022
  C      3.32450858      9.64308452      4.73275513
  N      2.23704827      8.92028647      4.49477039
  C      1.32590034      9.18707373      5.47199798
  C      1.88982992     10.08792447      6.31623080
  C      4.06799317     11.32728059      6.36399107
  C      3.76511806     12.69904631      5.76875441
  C      2.07787233      8.05662246      3.36379108
  H      4.21889781      9.63866246      4.14792465
  H      0.36028026      8.72469526      5.49588324
  H      1.51001365     10.54334463      7.20682389
  H      3.98490102     11.34111394      7.45398357
  H      5.07578247     11.00655428      6.09170781
  H      4.54006039     13.41145154      6.03718374
  H      2.80648922     13.06790925      6.12568313
  H      3.71639619     12.61477565      4.68499435
  H      1.07463541      7.63800521      3.36009094
  H      2.81431859      7.25314484      3.41738788
  H      2.23976914      8.64832843      2.46033417
  N      7.45207128      8.75438868      3.49384876
  C      6.25668683      8.47237840      2.91662335
  N      6.14018820      9.21225104      1.78671060
  C      7.27815088      9.95322304      1.65483369
  C      8.09544170      9.66286187      2.70053025
  C      7.93974360      8.15689279      4.70846997
  C      8.79938894      6.92301888      4.42915147
  C      4.98006568      9.29120027      0.94815238
  H      5.51654419      7.84461825      3.36764662
  H      7.42149831     10.62470314      0.83364274
  H      9.06620761     10.04339943      2.94615034
  H      8.52242924      8.90748761      5.25089025
  H      7.06008515      7.87537316      5.29686114
  H      9.15197934      6.50187790      5.36781154
  H      9.66313082      7.17941599      3.81759362
  H      8.21262398      6.16566944      3.91172596
  H      5.25835380      9.72943361     -0.00920435
  H      4.21692931      9.93398995      1.41944718
  H      4.56481522      8.29528392      0.78758603
  N      6.50663860      6.86018041      8.98232014
  C      6.70077636      6.40049708     10.22454919
  N      6.51362824      5.07172823     10.21926785
  C      6.34134550      4.67399009      8.91718408
  C      6.33554006      5.78713403      8.14784594
  C      6.61337351      8.23195700      8.55023259
  C      8.07302624      8.61668144      8.32816941
  C      6.77513084      4.22940808     11.34961386
  H      6.69998234      7.01369226     11.10215586
  H      6.23528517      3.64275692      8.65035804
  H      6.16635097      5.92149110      7.09815639
  H      6.03679339      8.32332359      7.62554534
  H      6.16969058      8.87132242      9.31885823
  H      8.14973911      9.66932426      8.06809536
  H      8.49860264      8.01552291      7.52932600
  H      8.64378797      8.42280580      9.23287409
  H      7.79081352      4.44228034     11.69523548
  H      6.69202236      3.18596470     11.05649586
  H      6.07140508      4.44198646     12.15588652
 Cl      2.93415329     11.26804816      2.61799550
 Cl      4.75486939      7.47878282      5.68207649
 Cl    -15.55194128      6.44746222     35.01086802
 Cl     14.45470492    -14.66893696    -22.66876666
 Cl      9.11913311      6.40181999     10.68668306
