#B3LYP/6-31+G(d) OPT FREQ

62, Energy =    -96.29497356 au

0 1
  N      8.56183241      5.63562359      4.18940326
  C      8.86433409      6.59992660      3.32266395
  N      9.13315204      6.04861320      2.14275709
  C      9.05107157      4.69172251      2.27445871
  C      8.68941168      4.43293190      3.55579589
  C      8.23117435      5.80063103      5.58110371
  C      6.83863398      6.39766781      5.75587606
  C      9.60435188      6.72813447      0.97106598
  H      8.82236697      7.65078080      3.51875587
  H      9.24536985      4.05605487      1.42993984
  H      8.54744092      3.51580966      4.09930362
  H      8.27249435      4.80976836      6.03873056
  H      8.98604687      6.44704916      6.03683371
  H      6.61400304      6.49393320      6.81422051
  H      6.09377266      5.74760635      5.30278675
  H      6.77475842      7.38163597      5.29559296
  H      8.89445147      7.49348997      0.65621550
  H      9.72921810      5.99064898      0.17768760
  H     10.56186930      7.20106792      1.19544454
  N     12.38507606      3.24974780      2.36424334
  C     11.92302710      4.04488441      3.32688264
  N     11.80923146      3.34560681      4.44876751
  C     12.20526294      2.06858244      4.19684997
  C     12.57413205      2.00810962      2.88824481
  C     12.62850351      3.61660265      0.98872530
  C     13.47469815      4.87926781      0.89091444
  C     11.31627804      3.84952597      5.69715297
  H     11.71069092      5.10145279      3.26555053
  H     12.18625046      1.30624763      4.94656502
  H     12.97305562      1.18344160      2.31114157
  H     13.14155884      2.77441391      0.52056761
  H     11.66830070      3.76565710      0.47882108
  H     13.62450453      5.13073203     -0.15482167
  H     14.44640996      4.72628545      1.35640841
  H     12.98345373      5.71631418      1.37947362
  H     12.02767558      3.63495980      6.49412834
  H     10.36406914      3.36080739      5.92992321
  H     11.17824176      4.92486540      5.60582865
  N      8.58446451      0.93883131      2.18007772
  C      9.03502595      1.18424760      0.94991949
  N     10.19649426      0.56391789      0.78330194
  C     10.49726043     -0.10768187      1.92641459
  C      9.48461969      0.12920447      2.80536337
  C      7.32245470      1.36191147      2.73098911
  C      6.24800223      0.30716359      2.48216535
  C     11.00486823      0.59991250     -0.40063998
  H      8.60311828      1.85784167      0.23184764
  H     11.42239060     -0.65031198      2.01039255
  H      9.34937739     -0.17234502      3.82314769
  H      7.46149671      1.51818501      3.80754380
  H      7.04419240      2.30683791      2.26172819
  H      5.31061301      0.63242501      2.92354352
  H      6.53296930     -0.63844554      2.93712504
  H      6.09859464      0.15147042      1.41489790
  H     10.64638345     -0.13336009     -1.12445835
  H     12.03222021      0.34853375     -0.12195709
  H     10.94003107      1.59427788     -0.84048607
 Cl     11.33730726      7.13628785      4.09306218
 Cl    -69.40119007     52.03648566     55.89853891
 Cl      8.41970010      2.07412532      5.81839149
 Cl     13.67332013     -0.53655355      1.19338422
 Cl      9.62007160      3.73841220     -0.81706314

