#B3LYP/6-31+G(d) OPT FREQ

62, Energy =    -96.27832896 au

0 1
  N      4.14123222      3.26139969      4.08982584
  C      4.29967092      2.81847954      2.84510730
  N      4.00249572      3.79356638      1.99317148
  C      3.63816231      4.88888249      2.71196551
  C      3.72392913      4.55518919      4.03107774
  C      4.45056433      2.45312876      5.24969655
  C      4.23989461      3.18253634      6.56190393
  C      4.08559932      3.73495431      0.56345888
  H      4.72119156      1.86062205      2.60188372
  H      3.41215935      5.81856679      2.23064002
  H      3.58914018      5.16605204      4.90128139
  H      3.82324585      1.55515504      5.20895709
  H      5.49062209      2.12534715      5.12870048
  H      4.61312950      2.56721261      7.37611143
  H      3.18253703      3.37594792      6.73430106
  H      4.76877054      4.13359188      6.57756187
  H      4.47185095      4.70095469      0.20533421
  H      3.09799709      3.57141680      0.12857695
  H      4.74922199      2.92475192      0.27132592
  N      8.99758169      5.04833706      5.58782259
  C     10.23780807      5.42370051      5.28858678
  N     10.44158199      6.66333406      5.73539336
  C      9.26325786      7.11248826      6.26471614
  C      8.36442960      6.09955647      6.18640574
  C      8.43098260      3.74094714      5.37045351
  C      8.79669266      2.77754638      6.49389113
  C     11.60598149      7.44502804      5.44089813
  H     10.98138714      4.80367833      4.83372855
  H      9.15358889      8.10439609      6.65057924
  H      7.31980384      6.07841639      6.45888739
  H      7.34870338      3.84606656      5.31950622
  H      8.78510768      3.35231134      4.41547050
  H      8.37256400      1.80653405      6.25688624
  H      8.38913404      3.12024264      7.44249011
  H      9.87619139      2.67370252      6.58694577
  H     11.49497908      8.44129494      5.86201074
  H     11.69020930      7.50247618      4.35025686
  H     12.50036633      6.96927906      5.84514060
  N      7.52478532      5.10003910      1.50862942
  C      7.48129626      6.42234286      1.58059412
  N      6.93050830      6.77855677      2.73188478
  C      6.59543396      5.64935629      3.41243429
  C      6.96956609      4.59235162      2.64632960
  C      8.07010131      4.31260145      0.43381664
  C      9.11967672      3.34152242      0.96078705
  C      6.63176492      8.11125010      3.16323459
  H      7.85672588      7.09592546      0.83828814
  H      6.11376364      5.71546968      4.37025343
  H      6.90191559      3.53443972      2.82194201
  H      7.25208930      3.77170351     -0.05289024
  H      8.51117708      5.00101506     -0.29000005
  H      9.60152851      2.82817049      0.13263925
  H      8.66461635      2.60124989      1.61364558
  H      9.86987588      3.89525010      1.52018961
  H      6.18424186      8.05780315      4.15423478
  H      5.92466085      8.56080595      2.46346363
  H      7.54275153      8.70991995      3.19676938
 Cl      5.14558229      6.47962043      6.40321623
 Cl    -42.36233187     35.11638546     37.47754128
 Cl      6.92705336      1.27999444      3.38692773
 Cl     10.27298512      6.25956412      2.77136465
 Cl      5.07172740      6.79703008      0.18741468

