62
Energy =    -96.29125826 au
  N      5.14488763      5.27377121      4.16305265
  C      5.04964899      4.24766892      3.32651783
  N      5.15496372      3.11885799      4.01919585
  C      5.31594009      3.43517781      5.33451366
  C      5.30618896      4.79272842      5.42471039
  C      5.11195549      6.66338649      3.78535497
  C      3.71721990      7.24701679      3.98192476
  C      5.17373330      1.78966936      3.48179230
  H      5.01889887      4.35545494      2.24453487
  H      5.46351344      2.67972155      6.07747144
  H      5.46431950      5.44831972      6.25664234
  H      5.83769361      7.18751596      4.41439964
  H      5.40243055      6.72246148      2.73468448
  H      3.72199983      8.29707363      3.70508662
  H      3.41111167      7.16463354      5.02283640
  H      2.99546428      6.72589813      3.35596214
  H      4.25893831      1.25577851      3.74483501
  H      6.02959813      1.25918170      3.91285859
  H      5.26814527      1.84263349      2.40000493
  N     11.28544505      3.59293308      4.90033166
  C     10.30982880      3.15366287      5.69334457
  N      9.68281206      4.19426660      6.22417376
  C     10.26618489      5.33118455      5.75591732
  C     11.27064839      4.95382646      4.91765861
  C     12.15373875      2.75519387      4.11134276
  C     11.42285445      2.26896703      2.86796201
  C      8.55069417      4.12060372      7.10108453
  H      9.99998968      2.13221610      5.81888153
  H      9.89027394      6.29998238      6.02033145
  H     11.91015719      5.53258306      4.28275881
  H     13.01805472      3.35185996      3.81540312
  H     12.48134470      1.91445328      4.73184065
  H     12.06508280      1.60447748      2.29624452
  H     11.17640688      3.13887486      2.26197778
  H     10.51293061      1.74314058      3.14522192
  H      7.97642818      5.04429190      7.00662714
  H      8.87519556      4.00211256      8.13615511
  H      7.94690230      3.26233702      6.80787040
  N      8.32517171      3.94240514      1.72595152
  C      8.48369859      5.23043885      1.44380836
  N      8.37202957      5.93917379      2.55542302
  C      8.15014227      5.08155968      3.58695151
  C      8.12023329      3.82552229      3.06998138
  C      8.19996808      2.90337344      0.73410339
  C      9.48787571      2.68988779     -0.06033875
  C      8.58869864      7.34847826      2.69395539
  H      8.64834385      5.63413044      0.46659348
  H      7.98775252      5.45470492      4.57835278
  H      7.99682011      2.88056567      3.56415413
  H      7.90326582      1.98812354      1.24993440
  H      7.38574993      3.21388667      0.06994800
  H      9.25922677      2.34668028     -1.06588125
  H     10.12621213      1.95519130      0.42208481
  H     10.04254071      3.62193477     -0.12678326
  H      9.64336473      7.55680282      2.50101239
  H      8.33592294      7.64018085      3.71185265
  H      7.97443710      7.89695316      1.98046368
 Cl      7.43927880      7.17501913      6.22242294
 Cl    -50.09561138     39.87974352     42.86286498
 Cl      7.86343874      1.18289562      5.32349445
 Cl     11.32999039      5.46782039      1.73356529
 Cl      5.69536038      5.17215084      0.43367642
