62
Energy =    -95.70475892 au
  N      1.39206570      9.55705404      0.63948873
  C      2.26459732     10.46110716      0.17849972
  N      2.31119754     10.35373691     -1.15311784
  C      1.43328941      9.38424355     -1.55142748
  C      0.85061211      8.88094134     -0.41898061
  C      1.00718198      9.38837220      2.04548920
  C     -0.46790709      9.67747788      2.25165471
  C      3.02214874     11.25830762     -2.04937804
  H      2.78449374     11.19815103      0.76338039
  H      1.27305365      9.14906563     -2.58756991
  H      0.08936331      8.13279677     -0.29763903
  H      1.26223364      8.36902857      2.33390559
  H      1.62812779     10.07320981      2.61833216
  H     -0.70800127      9.54824996      3.30609920
  H     -1.09127211      9.00307446      1.66831163
  H     -0.70461098     10.69441464      1.95470201
  H      2.29705784     11.91659797     -2.52018659
  H      3.55420351     10.67008584     -2.79210096
  H      3.71347542     11.85590481     -1.46614633
  N     10.43396529      6.22155618      7.36475698
  C      9.96016131      5.54245581      6.31334516
  N      8.73610191      5.10121015      6.61975364
  C      8.41160192      5.52924997      7.87704131
  C      9.48377114      6.23887455      8.34836709
  C     11.72473726      6.91789420      7.41422857
  C     11.53813930      8.41221194      7.59907918
  C      7.81619631      4.45042287      5.69388554
  H     10.44270544      5.43081911      5.35924885
  H      7.45487903      5.32454938      8.32128702
  H      9.62141421      6.76491058      9.27480343
  H     12.30111517      6.47993186      8.22864510
  H     12.22997410      6.69546729      6.47721879
  H     12.51706711      8.88901670      7.62265491
  H     11.01990000      8.63685670      8.52894790
  H     10.95813954      8.83026482      6.78225478
  H      7.05658265      5.17000077      5.40069888
  H      7.36953389      3.59201612      6.18820830
  H      8.36746683      4.14189282      4.81290640
  N      5.37133846      9.61765150      0.57239580
  C      6.45733237     10.26849991      1.00615601
  N      6.16961980     10.81496800      2.19169361
  C      4.88783624     10.48430736      2.53372442
  C      4.38274405      9.72613630      1.51131532
  C      5.28945469      8.83262148     -0.66471748
  C      5.01763243      7.36897494     -0.37175757
  C      7.12600054     11.47746000      3.07113796
  H      7.41912607     10.28985694      0.52646016
  H      4.45046384     10.78354285      3.46846437
  H      3.42834714      9.24517457      1.40293560
  H      4.50508558      9.27297092     -1.27965998
  H      6.24071440      8.96360364     -1.17527988
  H      4.97241017      6.82388821     -1.31358220
  H      4.07329669      7.23632907      0.15200591
  H      5.80553200      6.94857675      0.24537261
  H      7.37268847     10.79988213      3.88403216
  H      6.67936098     12.39308421      3.44911927
  H      8.02656250     11.69400055      2.50783294
 Cl      8.87658368      8.46865994      6.13552542
 Cl      2.24676396      5.30952203      7.59652698
 Cl      3.06199164      6.91638940      9.18125673
 Cl      2.61076661      7.76113616      7.42546663
 Cl      5.41996083      8.08496310      1.99187797
