62
Energy =    -96.26157649 au
  N      4.86344977      3.38118889     14.38379863
  C      4.67417875      3.64483872     15.67209517
  N      5.44139122      2.83388752     16.39187856
  C      6.14693559      2.03273870     15.54780902
  C      5.78505053      2.37743903     14.28266807
  C      4.21913703      4.08751543     13.30315568
  C      5.21196305      4.98338801     12.57116324
  C      5.53903717      2.77548966     17.82334948
  H      3.95294693      4.38877408     16.00639309
  H      6.83744610      1.30422545     15.95140730
  H      6.10326563      1.98500919     13.33913011
  H      3.78509738      3.35780439     12.61413377
  H      3.42270902      4.69290917     13.75615888
  H      4.70815457      5.49206689     11.75442033
  H      6.04155506      4.40556055     12.16588649
  H      5.60470078      5.73329329     13.25266792
  H      5.84452955      3.74307932     18.21951474
  H      6.28784860      2.01243026     18.07237056
  H      4.57577205      2.50619232     18.25506628
  N      6.87282271      6.56375998     -2.09827493
  C      7.98238510      6.80122936     -1.40738499
  N      8.46675648      5.65061152     -0.94900431
  C      7.67725305      4.64016556     -1.41894223
  C      6.67706066      5.21541370     -2.13432592
  C      6.05545389      7.54476198     -2.75820914
  C      6.39908108      7.60068169     -4.24300255
  C      9.67687527      5.45761117     -0.20602757
  H      8.35828382      7.77213202     -1.16269136
  H      7.87447970      3.62005326     -1.15732799
  H      5.84006579      4.77915808     -2.63844067
  H      5.00898637      7.28173963     -2.58313451
  H      6.25178540      8.51026327     -2.28838357
  H      5.90665329      8.44735212     -4.71506733
  H      6.09207373      6.68628177     -4.74576382
  H      7.47884442      7.70490882     -4.34430846
  H      9.87568253      6.33477978      0.40686017
  H     10.50875585      5.32188160     -0.89927762
  H      9.56083630      4.56899008      0.42015347
  N      6.56960985      5.16302918      2.89391902
  C      6.27354505      4.65561596      1.70110355
  N      5.21331293      3.86651866      1.81532428
  C      4.83264304      3.84763741      3.12442464
  C      5.68195214      4.66124920      3.80199856
  C      7.65121271      6.08098835      3.13107821
  C      7.24296526      7.49672142      2.73411412
  C      4.60421071      3.20149833      0.70383752
  H      6.74452328      4.90478299      0.77683010
  H      4.00068335      3.26934429      3.47115214
  H      5.72505189      4.91231054      4.84204087
  H      7.92573965      6.02946813      4.18743128
  H      8.49653119      5.73719666      2.53109951
  H      8.11326369      8.14628876      2.69133385
  H      6.53355968      7.90536058      3.45079869
  H      6.75889116      7.47594396      1.75923119
  H      4.29869237      3.96469478     -0.01566967
  H      3.74165170      2.63083970      1.04036770
  H      5.33730173      2.53939265      0.24033195
 Cl      2.33129836      5.68903519     15.53403634
 Cl      4.82548988      6.56205930      0.20570471
 Cl      7.81905937      0.39240796     17.73676919
 Cl      9.73473321      7.22922593     -3.32849733
 Cl      8.20567613      2.87811618      1.52732831
