62
Energy =    -96.26188326 au
  N      1.91235251      7.16908833      9.96406029
  C      0.71618166      6.68716538      9.64182392
  N      0.80281983      6.05188922      8.47952980
  C      2.08901648      6.14247170      8.03497140
  C      2.78831545      6.83904566      8.97078766
  C      2.23180841      7.92068658     11.15063234
  C      2.31232908      7.00733272     12.36953269
  C     -0.29469291      5.48681156      7.74967102
  H     -0.17365478      6.78842633     10.22686561
  H      2.36866275      5.68205053      7.10373421
  H      3.81014140      7.16627266      9.01830961
  H      3.20234447      8.40270581     10.97807205
  H      1.45983244      8.68096477     11.29060373
  H      2.56732159      7.59513715     13.24679075
  H      3.08723238      6.25925430     12.22023474
  H      1.36368856      6.50192914     12.54853212
  H     -0.78520260      4.71085516      8.33838676
  H      0.09638496      5.05974657      6.82060916
  H     -1.01477543      6.27780268      7.53539652
  N      7.50409854      9.32514979      1.51558671
  C      8.78698815      9.01288045      1.66648585
  N      8.91265809      8.22332769      2.72654638
  C      7.67380037      8.02884582      3.26888620
  C      6.78838467      8.72111770      2.50282870
  C      6.93125036     10.13652231      0.46870042
  C      7.13111585      9.47728693     -0.89056118
  C     10.16228629      7.68610604      3.18620785
  H      9.63992512      9.29712554      1.05556542
  H      7.51393397      7.42730735      4.13955927
  H      5.71853956      8.85992001      2.55548158
  H      5.86354002     10.24014179      0.70003685
  H      7.40878705     11.11998430      0.48384525
  H      6.70820671     10.10881763     -1.66680239
  H      6.62450245      8.51569010     -0.91467220
  H      8.18938104      9.32671595     -1.09475833
  H     10.93511264      7.98957594      2.47143047
  H     10.10875586      6.59853871      3.23491795
  H     10.40123762      8.07533656      4.17630540
  N      1.94699744      8.46643483      5.29210212
  C      1.64229554      8.82544205      6.53692902
  N      2.61092592      9.59543481      7.01948169
  C      3.56535772      9.72782383      6.05923215
  C      3.14741425      9.02059239      4.97343773
  C      1.17490710      7.60778552      4.42577269
  C     -0.30146633      7.97515391      4.44392319
  C      2.62840915     10.18956578      8.32432484
  H      0.74416960      8.59320643      7.08680777
  H      4.45828506     10.29544600      6.21690649
  H      3.57814634      8.94098021      3.99176063
  H      1.58191702      7.72012420      3.41913053
  H      1.30550586      6.55963302      4.73745215
  H     -0.84360775      7.29645895      3.79217940
  H     -0.44820793      8.99504153      4.09239728
  H     -0.71330030      7.88885493      5.44493990
  H      2.73564585     11.27082446      8.23644187
  H      3.47288464      9.80181426      8.90993199
  H      1.68950497      9.95647508      8.82221103
 Cl     11.71906604      9.05615740      0.55379295
 Cl      3.86010966      9.85889066      1.80643507
 Cl      5.20827858      8.92948568     10.06002386
 Cl     -0.75578719      8.85483244      8.76050523
 Cl      1.57736327      4.35912899      5.27511910
