62
Energy =    -96.26235814 au
  N      6.40762035      6.55701681      3.12094120
  C      7.26362499      5.93164789      3.92543834
  N      8.35562378      5.60804003      3.23592733
  C      8.22439976      6.11860552      1.97915489
  C      7.00491919      6.71118641      1.90402700
  C      5.12173295      7.07053160      3.51797514
  C      5.24231488      8.51483915      3.98883364
  C      9.54074485      5.01525586      3.78325719
  H      7.00661463      5.58612207      4.90680394
  H      8.99566553      6.02106009      1.24260358
  H      6.52354287      7.21568115      1.09120575
  H      4.43963436      6.98680828      2.66611786
  H      4.76275063      6.42841743      4.32725291
  H      4.32207000      8.83146145      4.47165388
  H      5.45381732      9.18094395      3.15331874
  H      6.06332238      8.58373855      4.69899660
  H      9.96617262      5.69967470      4.51897960
  H     10.26600641      4.83738613      2.99378138
  H      9.32156731      4.07089393      4.27758047
  N      6.29723675      0.77616709      5.79581845
  C      6.91623274     -0.36839139      5.52100420
  N      8.16754744     -0.10176028      5.16631430
  C      8.36133120      1.24633323      5.21529906
  C      7.18246050      1.79636974      5.61557796
  C      4.94905423      0.92556219      6.28571414
  C      4.85987390      0.54126706      7.75879323
  C      9.14020497     -1.09175687      4.80448360
  H      6.50075583     -1.36847174      5.49374250
  H      9.32332328      1.69029442      5.00967254
  H      6.87284743      2.81619406      5.72964389
  H      4.66198317      1.96953298      6.13660942
  H      4.29481257      0.28111464      5.69200208
  H      3.83473763      0.65283796      8.10082909
  H      5.49185711      1.17200386      8.37957519
  H      5.16184993     -0.49474199      7.89812868
  H      9.85275291     -1.22919952      5.61874000
  H      9.68531281     -0.76485555      3.92085159
  H      8.61188277     -2.02948959      4.61037157
  N      9.13043803      3.10806194      7.97951708
  C      7.93093489      3.40300024      8.47285029
  N      7.54287607      4.57268206      7.97639751
  C      8.51541379      5.03959521      7.14324621
  C      9.51476703      4.11664658      7.14803850
  C      9.94180146      1.94655736      8.26013569
  C      9.11246938      0.75357422      8.70705717
  C      6.26250820      5.18065469      8.19793192
  H      7.38257387      2.83931595      9.22789418
  H      8.43964438      5.98444456      6.63598808
  H     10.43003852      4.05638305      6.59232252
  H     10.50496065      1.73054517      7.34503266
  H     10.65823633      2.21057021      9.04699978
  H      9.77137305     -0.08505345      8.91649787
  H      8.41388027      0.45681440      7.93066841
  H      8.54324286      0.98148041      9.60601110
  H      5.61226285      4.97746570      7.33822037
  H      6.37845628      6.25811859      8.30293218
  H      5.81794966      4.75305411      9.09385237
 Cl      6.66851975     -3.38713165      4.57957694
 Cl      6.57061616      1.97807876     10.93755761
 Cl     11.43985086      2.43345171      5.05934727
 Cl      4.90368926      4.24686549      5.22597930
 Cl      8.41126602      7.92181995      5.21325759
