62
Energy =    -96.27173532 au
  N      7.03975099      4.04492740      5.82649259
  C      7.38294911      5.00550962      4.97649296
  N      7.00342929      4.65794710      3.75455607
  C      6.37712969      3.45220697      3.81938560
  C      6.39898278      3.06598262      5.12249672
  C      7.26615148      4.07594305      7.25004972
  C      5.97714588      4.42251491      7.98706143
  C      7.17850075      5.39807775      2.53876276
  H      7.94609273      5.87627186      5.26396654
  H      6.04646218      2.96482951      2.91779035
  H      6.01452422      2.18536801      5.59419323
  H      7.64573104      3.09824149      7.56390543
  H      8.03394085      4.83414605      7.43317586
  H      6.18548877      4.62957269      9.03279809
  H      5.25955963      3.60632836      7.92416229
  H      5.53501750      5.30396435      7.52859382
  H      6.37437475      6.12736538      2.43043928
  H      7.13488083      4.68381062      1.70734541
  H      8.13560963      5.91548965      2.55406226
  N      7.26722717      9.25862342      6.41827354
  C      6.97187585      8.29690758      7.28377431
  N      6.11084647      8.76928916      8.17688462
  C      5.81857918     10.06019220      7.85800747
  C      6.54408087     10.36789431      6.75146935
  C      8.14914870      9.11742922      5.28670807
  C      7.34322858      8.90634057      4.00998891
  C      5.53206481      8.05946418      9.28119747
  H      7.45323582      7.33426527      7.28673808
  H      5.15083879     10.63901169      8.47147442
  H      6.60181341     11.27557895      6.18713248
  H      8.76830252     10.01722825      5.21403391
  H      8.79201063      8.25565995      5.49208453
  H      7.99954971      8.62630537      3.19128375
  H      6.80288946      9.81121366      3.73663210
  H      6.61866389      8.11307139      4.17578812
  H      4.81711308      7.32393596      8.91201447
  H      5.01450566      8.78349981      9.91514550
  H      6.31149314      7.54857441      9.84484068
  N      0.91729547      9.13167089      8.35048380
  C      0.51513199      8.25219313      7.44122133
  N      1.57092320      7.86316964      6.73101530
  C      2.67166972      8.51493693      7.20442151
  C      2.26262480      9.31268064      8.22633741
  C      0.05949546      9.76310590      9.32323780
  C      0.52832349      9.44553710     10.73765608
  C      1.59064848      6.92210491      5.64642846
  H     -0.52495636      7.95365465      7.33117658
  H      3.63971438      8.33257058      6.77871951
  H      2.82159881      9.95603499      8.88663866
  H      0.08894742     10.84457933      9.16141079
  H     -0.95522355      9.39473515      9.13932562
  H     -0.13509795      9.91932291     11.45586896
  H      1.53896079      9.81605703     10.89680454
  H      0.51380776      8.37141978     10.90707503
  H      2.62904948      6.64790557      5.45063011
  H      1.16184638      7.36680394      4.74720554
  H      1.01378179      6.03624636      5.90709437
 Cl      9.63528452      6.50410954      6.86092447
 Cl      4.02192544     10.89262378     10.53202237
 Cl     -2.60296757      8.12937429      7.80144164
 Cl      6.75066621      2.67730979      0.67620838
 Cl      5.08473358      6.82633589      5.64544124
