62
Energy =    -96.27616629 au
  N      5.22545821      3.75172643      5.96773041
  C      4.58843913      3.02883283      5.04994594
  N      5.48565928      2.38656879      4.30990049
  C      6.72834972      2.68856601      4.78203789
  C      6.56547561      3.54673885      5.82169231
  C      4.62232869      4.52433471      7.02612642
  C      4.10074576      3.60696613      8.12851633
  C      5.19721164      1.43638779      3.27583086
  H      3.52791295      2.98234851      4.91612090
  H      7.60435943      2.22594843      4.36498661
  H      7.26235017      4.01797135      6.49359990
  H      5.39514031      5.18210755      7.42892984
  H      3.80696383      5.11995345      6.60536652
  H      3.43692850      4.15793080      8.78854729
  H      4.93480845      3.22465416      8.70941127
  H      3.56189399      2.76660327      7.69735302
  H      6.12660275      0.94920839      2.98704426
  H      4.75086889      1.92606045      2.40906016
  H      4.49405001      0.70234143      3.67328402
  N      8.76282386      1.34918295      7.43593822
  C      8.50703593      0.42437959      6.50934656
  N      7.20795810      0.14783736      6.52332580
  C      6.61441207      0.91514038      7.47618949
  C      7.58937881      1.67531996      8.04731749
  C     10.05222721      1.94047937      7.69344602
  C     10.30158517      3.11502675      6.75554650
  C      6.54290367     -0.77480591      5.65069721
  H      9.20599465      0.03047605      5.79741257
  H      5.55124276      0.88319894      7.62057477
  H      7.54067141      2.46095412      8.77510127
  H     10.06471924      2.28831530      8.72810468
  H     10.81440783      1.16686619      7.55899528
  H     11.32118197      3.47031257      6.87414617
  H      9.61512101      3.92087388      7.00597355
  H     10.14326573      2.81348001      5.72450615
  H      6.99277646     -0.69658265      4.66078997
  H      5.48356849     -0.51355815      5.62073789
  H      6.65241696     -1.79683114      6.01698692
  N      8.37631908      5.96973820      3.88813395
  C      7.68003043      5.40283721      2.89386073
  N      8.26567546      4.24688314      2.56730819
  C      9.42604074      4.13837071      3.28589640
  C      9.49228121      5.20926867      4.11082483
  C      8.07867476      7.25226282      4.46982804
  C      7.01705836      7.14743796      5.55881424
  C      7.86898053      3.35333519      1.51921369
  H      6.68859590      5.68443113      2.60732048
  H     10.07504559      3.29675270      3.16152793
  H     10.22480632      5.48758994      4.83849972
  H      9.00255726      7.65562793      4.88866143
  H      7.74728174      7.90344700      3.65486559
  H      6.79170369      8.13747477      5.94600093
  H      7.37244428      6.52903942      6.38093893
  H      6.10254987      6.71439584      5.15972941
  H      8.16844660      2.33977828      1.79088430
  H      8.34815362      3.64366349      0.58186788
  H      6.79048272      3.40149166      1.38517154
 Cl      8.24661937      6.90270427      1.03472995
 Cl    -26.48375529     14.45391997     -2.38988537
 Cl      8.81067469      0.54668628      3.38308033
 Cl      3.53124532      0.67469819      6.14966976
 Cl      7.93558288      5.04756771      8.35942049
