62
Energy =    -96.27174068 au
  N      6.57504285      1.15299206      6.51088664
  C      5.78653737      0.91327393      5.46945651
  N      6.49115455      0.31983252      4.51452553
  C      7.76782069      0.15698872      4.96630117
  C      7.82145758      0.67950156      6.21732304
  C      6.14708081      1.79539007      7.72563956
  C      5.53148369      0.77778079      8.68082270
  C      5.93098880     -0.13863691      3.27800184
  H      4.75661472      1.17688775      5.39897723
  H      8.52966775     -0.30560608      4.37336200
  H      8.63704300      0.75747575      6.90637045
  H      7.01042339      2.29215058      8.17651056
  H      5.41406374      2.55442713      7.44130075
  H      5.02655508      1.28114048      9.50115757
  H      6.29838724      0.12147927      9.08620062
  H      4.81474447      0.16540109      8.13752942
  H      5.13644377     -0.85235865      3.51074044
  H      6.70104971     -0.61867091      2.67847805
  H      5.51142452      0.70771011      2.73289252
  N      2.84480577      3.52090417      6.34790696
  C      2.69059740      2.90102301      5.18094319
  N      2.40755322      1.62114897      5.40233968
  C      2.30462088      1.43128961      6.74990996
  C      2.58056241      2.61985696      7.34249511
  C      3.17405840      4.91311171      6.51030153
  C      1.91310928      5.76801811      6.54046471
  C      2.15493357      0.61826888      4.40966237
  H      2.92423629      3.33715082      4.23442256
  H      2.09081837      0.46680743      7.16089094
  H      2.61278810      2.89162579      8.37734504
  H      3.74786698      5.02237389      7.43564998
  H      3.81196635      5.18983437      5.66805040
  H      2.16813433      6.82006353      6.45032877
  H      1.36584126      5.61394631      7.46829963
  H      1.26943930      5.47612796      5.71332645
  H      1.07931848      0.47745376      4.29320075
  H      2.62743431     -0.31329321      4.73170541
  H      2.56957630      0.94419132      3.45930401
  N      3.13087969      4.52750004      2.10469132
  C      1.83407148      4.71261472      1.86025672
  N      1.44258198      5.84466796      2.43368196
  C      2.53281049      6.43418414      3.00041164
  C      3.59369043      5.61555049      2.79017298
  C      3.95402835      3.44980424      1.61801469
  C      4.60207496      3.83604327      0.29206837
  C      0.10546754      6.34868832      2.37078026
  H      1.17522713      3.99466729      1.42016286
  H      2.46995821      7.37713778      3.50296704
  H      4.61658419      5.68353403      3.09835757
  H      4.70968903      3.23970688      2.38306251
  H      3.31266565      2.57533642      1.47834610
  H      5.07951396      2.97149991     -0.16117274
  H      5.34767904      4.61152881      0.44617555
  H      3.83586252      4.22189296     -0.37744316
  H      0.06656125      7.34523026      2.80444048
  H     -0.55125587      5.67450004      2.92457292
  H     -0.19688436      6.38229200      1.32252711
 Cl     39.82236506     21.90341965      7.07133957
 Cl      1.72658788      5.60721232     -0.56845992
 Cl      5.67003170      3.50296987      4.65378487
 Cl      0.31363951      3.62561446      4.39279703
 Cl      4.35390329     -1.30405864      6.09450831
