#B3LYP/6-31+G(d) OPT FREQ

62, Energy =    -96.27032080 au

0 1
  N      5.19199290      1.47929098      2.05551429
  C      4.23220890      1.10249371      1.21146215
  N      3.39761038      2.12637895      1.04430608
  C      3.83541828      3.18424342      1.78922880
  C      4.96086418      2.77457632      2.43339232
  C      6.26344879      0.64180625      2.54416795
  C      7.11649790      0.10892089      1.40130726
  C      2.21965693      2.16256119      0.22655714
  H      4.19300436      0.12420652      0.72170695
  H      3.26902074      4.09967187      1.83248577
  H      5.60241791      3.27300775      3.13831475
  H      6.85253304      1.24530457      3.23896133
  H      5.82345292     -0.19803111      3.08988258
  H      7.94297725     -0.47226887      1.80028121
  H      7.51712277      0.93060733      0.81241654
  H      6.51369945     -0.53101600      0.75763754
  H      2.47741902      2.43522061     -0.79865433
  H      1.54457582      2.91791579      0.64067015
  H      1.74446431      1.18350084      0.22009770
  N      4.96187375      7.30031330      4.85942486
  C      4.68579254      6.00111453      4.77780113
  N      3.36878278      5.83724875      4.80744226
  C      2.79062897      7.06575144      4.90321105
  C      3.79299635      7.98795101      4.93537691
  C      6.27366684      7.89799263      4.82355796
  C      6.76467650      8.01268722      3.38497766
  C      2.67660807      4.58137949      4.77451064
  H      5.41719431      5.19839548      4.74510437
  H      1.72890979      7.20075703      4.91803498
  H      3.79113185      9.05611130      5.06354931
  H      6.18667503      8.88998331      5.28473430
  H      6.95641117      7.26790846      5.39623014
  H      7.72459277      8.52354225      3.36536925
  H      6.05400233      8.58676618      2.79290504
  H      6.87850248      7.02314443      2.94392243
  H      3.40837449      3.77911171      4.72238415
  H      2.01942637      4.54470234      3.88936422
  H      2.06690092      4.46780995      5.67376732
  N      6.19853083      6.19949055      7.93695345
  C      5.95308114      7.44408654      8.34650413
  N      4.64150617      7.66296270      8.31085254
  C      4.02865466      6.50239435      7.94671257
  C      5.00221332      5.58464100      7.70727634
  C      7.47969699      5.54019594      7.88031371
  C      7.72467121      4.76783773      9.17405008
  C      4.02522402      8.89227906      8.71261843
  H      6.68440401      8.20071088      8.53782420
  H      2.96372291      6.41907615      7.86959569
  H      4.95616338      4.56584640      7.38158129
  H      7.47355263      4.86761631      7.01718921
  H      8.24920558      6.30372035      7.74499706
  H      8.76397838      4.45250297      9.23564257
  H      7.08574146      3.88884926      9.21698431
  H      7.49055239      5.41377705     10.01988363
  H      4.36614499      9.12809276      9.72421808
  H      2.94277251      8.78013224      8.69636208
  H      4.32560705      9.69120889      8.02153462
 Cl      6.14290182      7.33215193     10.94830980
 Cl      4.56704273     -1.66343986     -0.28279171
 Cl      5.09249911     10.72534023      6.13292028
 Cl      6.79164449      3.56934139      5.10048832
 Cl      0.95673997      4.83872047      1.95195999

