#B3LYP/6-31+G(d) OPT FREQ

62, Energy =    -96.26369639 au

0 1
  N      6.57979329      7.37444908      5.56855690
  C      6.92919367      6.24379762      4.96714506
  N      8.24877628      6.12265903      5.00203764
  C      8.76566173      7.19319992      5.66316076
  C      7.71731120      7.97983921      6.02216583
  C      5.22733710      7.82150941      5.78962320
  C      4.74692555      7.37677538      7.16670617
  C      9.02946216      5.02808696      4.50108770
  H      6.23556781      5.59067909      4.47336013
  H      9.83114184      7.28551473      5.79631699
  H      7.69543280      8.90443334      6.56048329
  H      5.20283602      8.91167393      5.69734285
  H      4.60791886      7.38505702      4.99840857
  H      3.67121676      7.50832832      7.25147940
  H      5.23543804      7.94944967      7.95333853
  H      4.99040289      6.32634446      7.30859403
  H      8.72852876      4.11338917      5.01301387
  H     10.08108267      5.24681090      4.70367946
  H      8.86542896      4.90652328      3.43143857
  N      9.68097056      3.57701788      9.38294514
  C      8.39241974      3.33696185      9.59237137
  N      8.24493768      2.80563318     10.80239749
  C      9.46963141      2.70302575     11.38851028
  C     10.37063398      3.19438972     10.49633899
  C     10.24132749      4.21812037      8.21638483
  C     10.36704611      5.71743847      8.42634093
  C      7.01891108      2.39780952     11.42922409
  H      7.60941860      3.55841123      8.87359216
  H      9.55741355      2.28669522     12.38471882
  H     11.43546133      3.29250353     10.56527243
  H     11.22068103      3.78437782      8.01736097
  H      9.58426559      4.02590832      7.37013327
  H     10.92224048      6.13418089      7.58593810
  H     10.89854948      5.94056856      9.35004006
  H      9.37822181      6.16914343      8.46373448
  H      6.33016094      3.24414922     11.50197889
  H      7.26855365      2.02656498     12.43204959
  H      6.54163288      1.60710397     10.84452269
  N      3.40817420      3.09105756      4.34451887
  C      3.32823590      3.38008119      3.05098413
  N      2.98420668      2.28327954      2.38217738
  C      2.83925296      1.26195424      3.26748755
  C      3.10651842      1.76950518      4.50297453
  C      3.71541447      4.04042060      5.38410773
  C      2.56685843      4.16026998      6.37849190
  C      2.81163698      2.16400050      0.96332494
  H      3.53995918      4.36488637      2.65367348
  H      2.51467484      0.29185570      2.92283094
  H      3.11809951      1.29182398      5.46048560
  H      4.62936162      3.73778496      5.90586310
  H      3.89331268      5.00007860      4.89193811
  H      2.85457340      4.84682956      7.16799362
  H      2.33781905      3.19737036      6.83111342
  H      1.67189095      4.54062309      5.88938488
  H      2.27757687      1.22388470      0.77060451
  H      3.78253991      2.13170194      0.46720856
  H      2.24711883      3.01320125      0.58368673
 Cl      4.33913225      6.40402047      2.88032913
 Cl      8.58119273      1.46189955     14.20616691
 Cl      1.43468279     -0.81004043      1.20801149
 Cl      6.62718955      4.30146121      7.09751319
 Cl     11.97077528      6.48568179      5.50915085

