62
Energy =    -96.29479445 au
  N      4.32656361      4.47990637      3.54611546
  C      4.77647347      3.80971961      2.49246131
  N      5.25037831      2.63712458      2.90011649
  C      5.09184943      2.55684446      4.25126683
  C      4.50652522      3.71642754      4.65648108
  C      3.77217821      5.80894134      3.50986090
  C      2.24838883      5.76252121      3.49968166
  C      5.88843230      1.64630342      2.08330995
  H      4.85011562      4.24357232      1.49828925
  H      5.43889630      1.71053635      4.80607459
  H      4.26745666      4.08463568      5.63319137
  H      4.13218083      6.33502785      4.39901552
  H      4.14401103      6.28943939      2.60246468
  H      1.85580341      6.77489736      3.48613929
  H      1.87450917      5.25796706      4.38837274
  H      1.88969027      5.23918236      2.61549789
  H      5.26493437      0.75410086      2.00463838
  H      6.84006157      1.37231828      2.55321285
  H      6.06194329      2.05821143      1.09228403
  N      8.61233079      4.55101858      6.20549550
  C      9.64132785      4.11373426      5.48828457
  N     10.39088475      5.14996295      5.12933742
  C      9.82208842      6.28158634      5.62856640
  C      8.70614674      5.90330864      6.31029869
  C      7.57094047      3.72804532      6.76406132
  C      7.93013612      3.28564172      8.17849026
  C     11.57379577      5.12532704      4.32194457
  H      9.76122629      3.08972607      5.17755051
  H     10.22348971      7.24892167      5.40939501
  H      7.94672364      6.47782812      6.80262888
  H      6.65331574      4.32299927      6.77217098
  H      7.45462945      2.86214266      6.10930869
  H      7.12129104      2.68672885      8.58606667
  H      8.07877116      4.14992067      8.82246448
  H      8.83843541      2.68600970      8.17412700
  H     12.44841971      5.38377607      4.92077815
  H     11.44636457      5.87845990      3.53120845
  H     11.70347016      4.13700004      3.88986807
  N      8.13796996      5.10346255      1.74917098
  C      7.82611540      6.39137375      1.70679862
  N      7.23444500      6.73314531      2.84064048
  C      7.17386767      5.63392064      3.64085018
  C      7.74690989      4.60793090      2.95972601
  C      8.79028759      4.35906497      0.70539865
  C     10.27928731      4.22051391      1.00009322
  C      6.78804640      8.04504253      3.20322975
  H      8.01256759      7.04692338      0.88183154
  H      6.70124638      5.68040624      4.60389765
  H      7.92099171      3.58714175      3.24487886
  H      8.31927759      3.37484968      0.64085810
  H      8.62603366      4.89161664     -0.23311022
  H     10.80036652      3.81634650      0.13656532
  H     10.42537882      3.55280929      1.84487337
  H     10.68895549      5.19777722      1.24411483
  H      7.64720526      8.71754552      3.23550508
  H      6.32341478      7.99381833      4.18589367
  H      6.06976798      8.40942122      2.46817059
 Cl      5.38270579      6.30495939      6.46909431
 Cl    -41.36890695     34.87271959     37.14425789
 Cl      8.41595404      1.44347555      4.22183817
 Cl     10.31785646      7.50689843      2.56826396
 Cl      5.39804496      5.85377643      0.24549291
