62
Energy =    -96.27015193 au
  N      5.96024540      1.81676220      3.95385617
  C      6.71563938      2.85416727      3.60554926
  N      7.99196332      2.49211880      3.64466615
  C      8.05769738      1.18527312      4.01481157
  C      6.77923886      0.76081901      4.21024104
  C      4.52508096      1.79613802      4.07522729
  C      3.87973457      1.00372420      2.94372554
  C      9.11874791      3.33194380      3.36533722
  H      6.37255011      3.85124567      3.35960930
  H      8.99204651      0.66495953      4.05828137
  H      6.39614077     -0.17191626      4.56788266
  H      4.30094159      1.32876508      5.04411267
  H      4.17233925      2.82838236      4.07210536
  H      2.80340574      0.98561975      3.08729014
  H      4.24176627     -0.02129081      2.94178147
  H      4.09007521      1.45245897      1.97501873
  H      9.78190614      2.80134477      2.67142086
  H      9.66495336      3.53534061      4.28739213
  H      8.76955479      4.26918467      2.93936742
  N      7.31534151      2.32185586      0.35689758
  C      6.25873025      3.13011378      0.30596437
  N      6.66735653      4.36488325      0.04241341
  C      8.02150572      4.33928195     -0.10599057
  C      8.42913997      3.05723819      0.08377022
  C      7.30295489      0.88990744      0.52002249
  C      7.06747132      0.21935300     -0.83030721
  C      5.80065911      5.49581451     -0.10181873
  H      5.24435822      2.84858199      0.48937883
  H      8.58387083      5.22243421     -0.32811532
  H      9.40215971      2.60551403      0.10740583
  H      8.27231967      0.60250622      0.94156971
  H      6.50268816      0.62571975      1.21519016
  H      6.86612992     -0.83968573     -0.69344771
  H      7.94532575      0.33201966     -1.46140217
  H      6.22067281      0.68915682     -1.32842007
  H      4.90789286      5.17213495     -0.63716364
  H      6.30838228      6.27363548     -0.66833705
  H      5.53545597      5.88235277      0.88557233
  N      3.92643370      4.24525768      7.88509178
  C      3.75397236      5.52918360      7.59569730
  N      4.58006801      5.85673656      6.60718098
  C      5.29549618      4.74825961      6.25942746
  C      4.88280266      3.72991002      7.06112128
  C      3.18002640      3.52541750      8.88763683
  C      2.36919450      2.40432910      8.25024497
  C      4.72033923      7.14547591      5.99113120
  H      3.06336331      6.17220757      8.14174014
  H      6.01074350      4.78983568      5.46317221
  H      5.16276352      2.68880338      7.08928498
  H      3.88508045      3.10179950      9.60779414
  H      2.53821431      4.25529912      9.38969016
  H      1.77850149      1.90410016      9.01230663
  H      3.03270103      1.67573767      7.78756183
  H      1.69646706      2.80575452      7.49644133
  H      5.38139454      7.78033881      6.58372158
  H      3.74745368      7.62640589      5.91395521
  H      5.15474641      7.00771943      4.99814712
 Cl      4.90134638      2.78970351     -2.01787748
 Cl      1.79887833      6.72186619      9.72895993
 Cl     10.55403369      0.96484384      1.60078898
 Cl      5.07637433      0.41269633      6.98365031
 Cl      6.34329001      6.01501167      3.19762552
