#B3LYP/6-31+G(d) OPT FREQ

62, Energy =    -96.26400953 au

0 1
  N      6.03141892      1.66980640      9.96897298
  C      7.13895812      1.11077133      9.49138972
  N      6.83509513     -0.05486104      8.93270103
  C      5.49300590     -0.25149083      9.04848984
  C      4.98877773      0.83145747      9.69789005
  C      5.97560485      2.96773668     10.59880669
  C      6.48732269      2.93339685     12.03065381
  C      7.73964330     -0.94191988      8.25782668
  H      8.11951868      1.53282371      9.56048907
  H      5.04252471     -1.14970899      8.65928461
  H      3.98369928      1.06696063      9.97965143
  H      6.58944452      3.64133586      9.99635530
  H      4.94254145      3.31665549     10.57494578
  H      6.48352920      3.94897012     12.42829545
  H      7.50657569      2.55320989     12.06770936
  H      5.85328118      2.30479739     12.65283896
  H      8.18281357     -0.42985778      7.40379879
  H      7.16650382     -1.80955418      7.91631229
  H      8.53231282     -1.26449104      8.93279515
  N      3.93164712      1.72351256      5.97287748
  C      3.00111155      0.78310500      5.85332351
  N      3.59473411     -0.40334255      5.82522556
  C      4.94085095     -0.21680720      5.93272199
  C      5.15371476      1.12324427      6.02953429
  C      3.65016308      3.13481535      6.06699282
  C      3.97557418      3.65554532      7.46135591
  C      2.95945923     -1.68465386      5.71599272
  H      1.94232842      1.02908126      5.76182885
  H      5.60687387     -1.05490335      5.98124908
  H      6.05998418      1.68148224      6.16106950
  H      4.25267471      3.66305909      5.32327763
  H      2.58308085      3.25651698      5.84308377
  H      3.70604884      4.70657543      7.52444009
  H      5.03742670      3.54469590      7.67384295
  H      3.39677255      3.10684222      8.20126886
  H      2.96581098     -2.02397658      4.67849444
  H      1.93144714     -1.61422443      6.06354153
  H      3.52595109     -2.39764426      6.32460131
  N      6.05634889      6.49174271      9.15835038
  C      7.21834073      6.13976826      9.70579674
  N      8.08090640      5.84563450      8.73501445
  C      7.45101730      6.00648194      7.53820160
  C      6.18344267      6.42009887      7.80164189
  C      4.89853739      6.89852456      9.91552013
  C      4.63475901      8.39083242      9.74617435
  C      9.40202259      5.31981740      8.91214376
  H      7.36555992      6.10619090     10.78549466
  H      7.93078772      5.78555766      6.60802218
  H      5.37984821      6.64284702      7.13107427
  H      4.03489500      6.31641535      9.58340092
  H      5.11886363      6.67404097     10.96560230
  H      3.75418000      8.66709399     10.31726080
  H      4.46750637      8.64812078      8.70159243
  H      5.47920065      8.96264315     10.12161363
  H     10.13347891      5.93973170      8.39280947
  H      9.42247252      4.31039795      8.49074452
  H      9.63184013      5.28463246      9.97415512
 Cl      5.36139628     -3.14138658      7.49825755
 Cl     23.67743384     21.88067303    -16.21354832
 Cl      0.40959069      2.44442997      5.50661647
 Cl      6.67526688      6.28932769     12.75572108
 Cl      7.60440568      2.98606549      7.49778330

