#B3LYP/6-31+G(d) OPT FREQ

62, Energy =    -96.26086334 au

0 1
  N      3.28750246      1.62204265      0.80328362
  C      3.24669974      2.78058462      1.45333698
  N      3.65608719      3.75136479      0.63922801
  C      3.93108964      3.19261757     -0.57628140
  C      3.70613776      1.85726389     -0.47177124
  C      2.92991376      0.31722254      1.31255406
  C      1.72964417      0.39680537      2.24794758
  C      3.60835573      5.14797962      0.96071872
  H      2.95868615      2.92201120      2.47347069
  H      4.25591304      3.77895405     -1.41052592
  H      3.78479509      1.04475615     -1.17816539
  H      2.73533433     -0.31241736      0.43743167
  H      3.79660239     -0.10571288      1.83371193
  H      1.21220072     -0.55689572      2.28110544
  H      1.03870508      1.15952045      1.89812030
  H      2.03113657      0.65809241      3.26028794
  H      2.57453109      5.38417123      1.23534829
  H      3.90850106      5.73562820      0.09643885
  H      4.26259148      5.37244856      1.80418003
  N     -0.25236484     -0.58248523     -0.73330250
  C     -1.29588043     -0.08930455     -0.07353413
  N     -1.18693088      1.23437057     -0.04297582
  C     -0.04554535      1.59443639     -0.69728939
  C      0.54091809      0.44840057     -1.13500635
  C     -0.00843821     -1.97915010     -0.99971800
  C     -1.10746246     -2.55220023     -1.88643228
  C     -2.09254682      2.14269589      0.59814889
  H     -2.14345942     -0.67719925      0.29680219
  H      0.27403986      2.61475489     -0.74828339
  H      1.46217943      0.26479623     -1.65779203
  H      0.97783134     -2.05054529     -1.46643509
  H      0.00425011     -2.51851545     -0.04842639
  H     -0.89925808     -3.59627684     -2.10293246
  H     -1.16198236     -2.00343139     -2.82563892
  H     -2.06732275     -2.48279693     -1.37507334
  H     -2.65833874      2.70243853     -0.14848549
  H     -1.51462583      2.84670381      1.20094969
  H     -2.78122287      1.57859919      1.22206012
  N     13.48440321      7.97129748      8.25860327
  C     13.18597323      8.14632276      6.97618317
  N     12.28525094      7.23853742      6.61865994
  C     12.00404482      6.46139771      7.70743602
  C     12.75800870      6.92634743      8.74009127
  C     14.38056869      8.77672711      9.05262797
  C     13.82393139     10.18597886      9.21296794
  C     11.72579015      7.13282437      5.30048531
  H     13.55930485      8.88975081      6.27422190
  H     11.30236395      5.65392321      7.66737416
  H     12.87682023      6.62081504      9.77182015
  H     14.46919733      8.27986558     10.02861649
  H     15.35482818      8.81081385      8.55910388
  H     14.50164748     10.77737667      9.82128163
  H     12.85891166     10.14804149      9.71192716
  H     13.70493741     10.66682718      8.24398696
  H     10.63975203      7.21495171      5.34364797
  H     11.99395872      6.17749099      4.84858848
  H     12.13852328      7.95403612      4.70216484
 Cl     13.45705894      9.79461160      4.34515463
 Cl     13.94628585      6.80754543     11.69761273
 Cl      0.70797272      3.85491591      1.56210803
 Cl     -3.81775312     -1.83092248      0.47384895
 Cl      3.35892482     -1.07840251     -1.78829386

