62
Energy =    -96.26561784 au
  N      2.88742335      1.48265194      5.37764801
  C      1.71400337      1.66715227      5.97554502
  N      1.92305182      1.88016783      7.26900865
  C      3.26261047      1.82404534      7.50740518
  C      3.87010523      1.57788798      6.31438909
  C      3.07716940      1.29719838      3.95975042
  C      2.69858144      2.57094447      3.21213003
  C      0.91142930      2.12766097      8.25516845
  H      0.75467173      1.73554695      5.46674815
  H      3.66449429      2.02860876      8.47869979
  H      4.90001428      1.42034425      6.05989659
  H      4.12368095      1.02298621      3.79838307
  H      2.43690340      0.47686042      3.62623754
  H      2.90224645      2.44911190      2.15212431
  H      3.27419771      3.41515481      3.58660078
  H      1.63781305      2.77390327      3.34724462
  H      0.02242083      2.51542612      7.76363719
  H      1.30324029      2.85492537      8.97494046
  H      0.66294034      1.20522889      8.78338779
  N      9.51124165      1.80375445      1.94043026
  C      8.42483904      1.78196346      2.70403739
  N      8.05017089      3.03053432      2.95666594
  C      8.92586158      3.87278158      2.33203317
  C      9.84307408      3.09898544      1.68999681
  C     10.20848438      0.66335399      1.39773496
  C      9.38863260      0.02178049      0.28428121
  C      6.91232359      3.38972655      3.75655985
  H      7.89383366      0.92473987      3.09985775
  H      8.83071560      4.93730364      2.38927024
  H     10.72367953      3.32182676      1.10232089
  H     11.16296554      1.03674449      1.00034893
  H     10.38489014     -0.05586399      2.20081130
  H      9.92115492     -0.83917650     -0.10865572
  H      9.24363210      0.73322825     -0.52456021
  H      8.41725296     -0.30136272      0.65420797
  H      6.45123615      2.46181356      4.10745070
  H      6.19638111      3.95861500      3.16349843
  H      7.22255368      3.99102103      4.61093052
  N      2.47337822      6.40184460      6.60651162
  C      2.20712844      6.89700518      5.40128501
  N      1.37543074      6.07091618      4.77958073
  C      1.10242738      5.01602414      5.60042984
  C      1.79460199      5.22901370      6.75258479
  C      3.29385661      7.01014865      7.62483715
  C      2.68317142      8.32830195      8.08646082
  C      0.86583504      6.28384927      3.45536405
  H      2.52751933      7.84209778      4.96638843
  H      0.44096221      4.22011744      5.29831870
  H      1.88327581      4.67287748      7.66702491
  H      3.35832629      6.29719668      8.45300530
  H      4.29349281      7.18503999      7.21720773
  H      3.31733151      8.78181416      8.84323776
  H      1.70029582      8.15319178      8.51742798
  H      2.58390470      9.01522332      7.24888179
  H     -0.20776232      6.10366805      3.44128518
  H      1.33968540      5.59518564      2.75451064
  H      1.08923121      7.31404414      3.16962600
 Cl      2.89138664      4.27470323      9.77324254
 Cl      2.29889585      9.47130428      3.63602501
 Cl     12.61379571      2.56976814      0.16910014
 Cl      6.27534581      0.14350024      4.34473739
 Cl     -0.84367763      2.56666368      4.37729410
