62
Energy =    -96.13559830 au
  N      1.59864946      4.71611154      0.03644984
  C      1.94863016      3.73383036      0.86163979
  N      1.06552523      3.68634136      1.85374647
  C      0.13454718      4.65726436      1.66603770
  C      0.46780693      5.30488908      0.51686520
  C      2.28468744      5.02681458     -1.18878425
  C      1.60508998      4.33327472     -2.36462197
  C      1.06680676      2.79149630      2.97480683
  H      2.79028858      3.09374459      0.63639118
  H     -0.68406513      4.76570847      2.36694172
  H     -0.00244096      6.13547134      0.03330847
  H      2.28282490      6.11124242     -1.32373572
  H      3.29410192      4.62407425     -1.09748223
  H      2.08776837      4.62475812     -3.29163399
  H      0.55020125      4.59374269     -2.42107280
  H      1.71698451      3.26272879     -2.23320163
  H      1.11934208      1.75956513      2.63334146
  H      0.13985461      2.96151240      3.53634135
  H      1.92222687      2.99550583      3.61707659
  N      5.75373140      9.16785478      8.38671132
  C      4.86428471      8.16419035      8.10088203
  N      5.33135070      7.41499253      7.08554950
  C      6.55938296      7.95511022      6.74950761
  C      6.80563461      9.02744967      7.56001906
  C      5.63599866     10.12823372      9.44746848
  C      5.76107407      9.46109023     10.81576716
  C      4.70687552      6.40944852      6.44310316
  H      3.90799000      8.04424266      8.56228370
  H      7.15103637      7.53754175      5.96100504
  H      7.63917425      9.69966183      7.60945116
  H      6.44788727     10.85689894      9.32333002
  H      4.66915946     10.63815625      9.36673379
  H      5.67106644     10.21056625     11.59739247
  H      6.73700579      8.99056020     10.90273215
  H      4.98987181      8.70395797     10.95694196
  H      5.34071479      5.75686204      5.86550568
  H      3.05209055      6.47866862      4.73040378
  H      3.89171219      5.94571319      6.97547571
  N      1.42027613      7.47988547      3.83462408
  C      2.27688992      6.30412884      3.95847741
  N      2.87993944      6.09184211      2.63822716
  C      2.47450057      7.20632530      1.86800801
  C      1.57048030      7.93142014      2.52611345
  C      0.12867932      7.43068464      4.47867009
  C      0.28343945      7.62937891      5.98385216
  C      4.28209942      5.75103203      2.64842589
  H      1.68125123      5.42395621      4.24621934
  H      2.88810175      7.35235584      0.88921528
  H      1.01359073      8.78471387      2.18716000
  H     -0.48465003      8.23473451      4.06217043
  H     -0.38046383      6.47355256      4.29102642
  H     -0.69293494      7.62223329      6.46173215
  H      0.78025867      8.57434413      6.19267706
  H      0.88150934      6.82595896      6.40410983
  H      4.89809398      6.50765900      3.15425412
  H      4.62318953      5.62798829      1.62121510
  H      4.40655622      4.80214130      3.16902571
 Cl      5.29593343      0.94268343     -2.00534966
 Cl     -1.82107642      4.04398902      4.09256888
 Cl      6.70862295     -0.61809999     -3.35621852
 Cl      8.43885813     11.92992576      9.01083813
 Cl      4.16180562      2.17745992     -0.97141037
