#B3LYP/6-31+G(d) OPT FREQ

62, Energy =    -96.28651410 au

0 1
  N      6.34890806      8.71364709      5.52583574
  C      5.04885350      8.49940592      5.69445940
  N      4.75301666      7.27998042      5.25576486
  C      5.89066570      6.69502765      4.79776734
  C      6.89488560      7.59709047      4.96687366
  C      7.10888698      9.87572159      5.92242369
  C      6.22013261     11.02507900      6.36157786
  C      3.45705759      6.66961110      5.32125271
  H      4.32132055      9.14853780      6.18039747
  H      5.90264302      5.68898696      4.43349189
  H      7.94201356      7.52343458      4.76189449
  H      7.79066315      9.56311889      6.72935020
  H      7.72869341     10.17793183      5.07142721
  H      6.84186794     11.84628103      6.70781390
  H      5.55745916     10.72765275      7.16889212
  H      5.60491445     11.37822820      5.53609827
  H      3.56558369      5.67363530      5.75897165
  H      3.02853766      6.57282247      4.32248597
  H      2.81304312      7.29233635      5.93810996
  N      8.01153503      4.62517650      8.91243842
  C      6.87212646      3.94744260      9.02748157
  N      6.14369359      4.48806561      9.99575269
  C      6.83048841      5.54000669     10.51715215
  C      8.00380851      5.63052495      9.83283891
  C      9.01178567      4.40013744      7.89914178
  C      8.63737608      5.15850963      6.63253679
  C      4.82583472      4.07819927     10.38569707
  H      6.55724624      3.14514720      8.38992099
  H      6.39214121      6.14462627     11.29149373
  H      8.79317749      6.35278399      9.88089506
  H      9.97213401      4.75266648      8.28019816
  H      9.06775492      3.32493113      7.70645598
  H      9.32597114      4.91013905      5.82985749
  H      8.68790607      6.22634468      6.83185430
  H      7.62569995      4.89833988      6.33513763
  H      4.23970257      3.88014709      9.48943846
  H      4.38104903      4.88791795     10.97144893
  H      4.86857779      3.17375736     10.99434896
  N      5.40090989      8.74458253      9.45340101
  C      4.13943104      8.38521806      9.65081324
  N      3.89694350      7.26840905      8.98362988
  C      5.03857214      6.89458913      8.34358253
  C      5.98744573      7.81985780      8.64098464
  C      6.08246399      9.84671234     10.08004376
  C      6.70981772      9.39326885     11.39533827
  C      2.63813283      6.58752512      8.94869435
  H      3.42453749      8.91549285     10.24450518
  H      5.09150893      6.00106815      7.74959839
  H      7.02283879      7.89406450      8.35983685
  H      6.85864403     10.19778076      9.39638618
  H      5.35614060     10.64507810     10.24975291
  H      7.04800809     10.25168994     11.96931707
  H      7.55873331      8.74593044     11.19215671
  H      5.98051584      8.83561128     11.97823990
  H      2.34577519      6.32758583      9.96709886
  H      2.73772449      5.68755557      8.34685153
  H      1.88632831      7.24739785      8.51261517
 Cl      4.26792018      6.86643824     12.12583844
 Cl      2.83456714      9.82781786      7.45484249
 Cl      4.99928594    -28.61609575     -1.99122836
 Cl      4.97967489      3.96358309      6.64604845
 Cl      9.23394943      8.31465264      7.94434881

