62
Energy =    -96.27046845 au
  N      4.76320184      4.10833994      1.71371704
  C      4.74221962      2.93585990      2.34160440
  N      5.75511345      2.88318613      3.19988315
  C      6.48473556      4.02772048      3.07447021
  C      5.86330885      4.79589693      2.14306819
  C      3.80887614      4.51859936      0.71909532
  C      2.69079858      5.34652206      1.34590241
  C      6.06528883      1.77970986      4.05827373
  H      3.96483293      2.20544681      2.26875610
  H      7.36214726      4.19065896      3.66944031
  H      6.11199090      5.75703014      1.74141890
  H      4.33307966      5.08704948     -0.05571782
  H      3.41467748      3.60619670      0.26639437
  H      1.85554728      5.44019771      0.65636438
  H      3.04644892      6.34147881      1.60712646
  H      2.34894253      4.86099704      2.25724180
  H      5.18118077      1.51386162      4.63836486
  H      6.87383706      2.07130333      4.72758114
  H      6.37112369      0.92408047      3.45437675
  N      6.03337799      6.30412362      5.94233525
  C      5.43568433      5.12204013      6.04297555
  N      5.79687816      4.55547099      7.18313762
  C      6.66887130      5.38388016      7.82107453
  C      6.81409269      6.48918415      7.04178591
  C      5.87662330      7.23902361      4.85507829
  C      4.40445820      7.49572607      4.55960780
  C      5.40450315      3.23909258      7.59223173
  H      4.70906093      4.69472240      5.35336297
  H      7.12536163      5.11866406      8.75184639
  H      7.38934294      7.38586297      7.16868122
  H      6.39436777      8.15973847      5.14422140
  H      6.36177591      6.81593593      3.97067059
  H      4.31563554      8.15137896      3.69665373
  H      3.92511307      7.97909601      5.40843354
  H      3.88254869      6.56424489      4.34877392
  H      4.55374598      2.93106928      6.98714557
  H      5.13748748      3.23238169      8.64916346
  H      6.24136661      2.55690225      7.42141090
  N      9.35940341      7.18471498      3.81724436
  C      9.69701818      7.23445805      5.10736276
  N     10.12675947      6.03415358      5.48705192
  C     10.07416502      5.19872333      4.41438925
  C      9.59691843      5.91946987      3.36309661
  C      8.88874584      8.31908961      3.06427064
  C     10.04690211      9.02348360      2.36308223
  C     10.51196540      5.64993537      6.81202053
  H      9.49501676      8.09998193      5.72725497
  H     10.32945566      4.16234422      4.48438559
  H      9.39538133      5.62140325      2.35537698
  H      8.15612244      7.97428552      2.33113793
  H      8.41259633      8.99896251      3.77950223
  H      9.66776122      9.85556209      1.77752894
  H     10.57549200      8.33998668      1.70035749
  H     10.74590820      9.41146629      3.09942601
  H     10.30695579      6.46689820      7.49940414
  H     11.57146271      5.39083599      6.84196669
  H      9.91684909      4.76897767      7.08091747
 Cl      8.40057342      3.34567401      6.14777372
 Cl      8.03950578      9.63477182      6.11244123
 Cl      2.96141597      3.90234276      4.54942579
 Cl      5.67889045      1.60865161      0.34233206
 Cl     24.36798525    -14.41309623     37.74800961
