#B3LYP/6-31+G(d) OPT FREQ

62, Energy =    -96.27661512 au

0 1
  N      8.50772312      1.59496496      6.36825008
  C      8.67422556      2.91737529      6.24079535
  N      8.83772820      3.44593707      7.45383594
  C      8.64052642      2.45997947      8.38027127
  C      8.43275868      1.30392104      7.70316864
  C      8.25161666      0.71600726      5.25869932
  C      9.51251806      0.49866524      4.42867115
  C      9.07078436      4.83968647      7.69436919
  H      8.93798362      3.42654715      5.33635252
  H      8.66655788      2.65296067      9.43305422
  H      8.24072276      0.31274468      8.05929689
  H      7.87764101     -0.23306203      5.64999564
  H      7.46644434      1.18354883      4.65565740
  H      9.27791862     -0.07611639      3.53713547
  H     10.26272528     -0.03836681      5.00587931
  H      9.93243097      1.45403317      4.12702752
  H      9.30755568      4.99809306      8.74391190
  H      8.18216208      5.41049044      7.41926573
  H      9.90386196      5.16145680      7.06572732
  N      8.76247545      8.33053580      2.09365026
  C      9.33448754      8.70452672      3.23196917
  N     10.32971517      7.86661225      3.50585390
  C     10.39541896      6.93844861      2.50897246
  C      9.41149041      7.23446470      1.61670017
  C      7.64216678      8.98370247      1.46671986
  C      8.12062045      9.98799399      0.42383976
  C     11.15426471      7.87772072      4.67936161
  H      8.93736740      9.48613239      3.87399376
  H     11.09874119      6.13231724      2.54384944
  H      9.05974802      6.72600950      0.73920240
  H      7.04019185      8.20239977      0.98941921
  H      7.07726896      9.49222683      2.25006153
  H      7.26209392     10.45489199     -0.04944620
  H      8.70711528      9.48614244     -0.34251013
  H      8.72697926     10.76268455      0.88966584
  H     12.11923457      8.34183319      4.46688204
  H     11.31883983      6.84299150      4.99625034
  H     10.65003678      8.43386288      5.46570595
  N      6.24024758      6.97672773      3.99864691
  C      6.35023157      5.93832063      3.17626834
  N      7.49369933      5.31631466      3.41697727
  C      8.12608287      5.95556779      4.43440210
  C      7.33735071      7.00046464      4.80391928
  C      5.14561745      7.90980034      4.07765161
  C      4.11925605      7.44226824      5.10454290
  C      7.97920318      4.16859788      2.71190025
  H      5.66923067      5.67754259      2.39114989
  H      9.08069774      5.62309517      4.79593901
  H      7.47574559      7.78212708      5.52306958
  H      5.56742475      8.87853899      4.36871412
  H      4.69013951      7.98902658      3.08836366
  H      3.28982954      8.14279774      5.14577824
  H      4.57625416      7.38420470      6.08904537
  H      3.74005530      6.45617269      4.84389964
  H      7.45374301      3.27964592      3.06339759
  H      9.04620741      4.06570364      2.89769231
  H      7.78834145      4.31649478      1.64737495
 Cl      6.33593202      3.50970994      5.71129239
 Cl      6.80439738      6.03003444      0.13445273
 Cl    -22.45447005     -8.47539817     10.57118880
 Cl     11.15577395      4.52413839      4.97132493
 Cl      7.33924669     10.39226006      4.93538185

