62
Energy =    -96.28828089 au
  N      4.68707479      4.83806180      4.40589187
  C      5.08015004      4.60761377      3.15575502
  N      5.29990935      3.30750893      3.00849189
  C      5.04333331      2.68972994      4.19315272
  C      4.65024011      3.65140893      5.07192067
  C      4.27225551      6.09724680      4.97130476
  C      2.78875606      6.33432419      4.70689902
  C      5.77936405      2.68555605      1.80952999
  H      5.26300543      5.32408633      2.36421659
  H      5.17940932      1.63646168      4.32195526
  H      4.41133949      3.62541404      6.11879080
  H      4.46031591      6.04009027      6.05086174
  H      4.86459993      6.89758770      4.52590996
  H      2.48954853      7.28349876      5.14147008
  H      2.19579106      5.54521576      5.16272029
  H      2.58814488      6.35747465      3.63701285
  H      5.03823461      1.98743145      1.41945778
  H      6.69880389      2.14738213      2.04376756
  H      5.97753678      3.47216987      1.08124514
  N     10.04305844      4.30724896      5.96516424
  C      9.40273845      3.20981299      6.35523296
  N      8.19005949      3.54019928      6.77970227
  C      8.03407691      4.88381556      6.62268200
  C      9.20082201      5.36753885      6.11425267
  C     11.38817822      4.37420321      5.44848623
  C     11.43058548      3.97526185      3.97652580
  C      7.18374480      2.63338880      7.24933117
  H      9.80391877      2.21667443      6.34161763
  H      7.11576835      5.35759341      6.91814696
  H      9.52077149      6.34756337      5.80696051
  H     11.72020165      5.41050984      5.54066760
  H     12.02108806      3.71708145      6.05251669
  H     12.43756074      3.67791931      3.69687962
  H     11.13989325      4.83493092      3.38085533
  H     10.74481545      3.15420540      3.78481243
  H      6.87826255      1.98834372      6.42489499
  H      6.33162932      3.22066745      7.59991834
  H      7.57502893      2.02015423      8.06121047
  N      9.23371419      4.88553794      1.47688508
  C      8.46630486      5.18419760      2.51863469
  N      8.41458823      6.49811621      2.66085352
  C      9.15990715      7.06262490      1.67777150
  C      9.67312770      6.05174774      0.92932606
  C      9.46852502      3.55900361      0.96514861
  C      8.79997086      3.39375398     -0.39671973
  C      7.71894743      7.23897303      3.66838515
  H      8.01458609      4.44647022      3.15685285
  H      9.28076742      8.12198871      1.59383370
  H     10.30470909      6.07994513      0.06594860
  H     10.54799129      3.39338289      0.89177155
  H      9.05493812      2.85836297      1.69362978
  H      8.70528551      2.34123138     -0.64688563
  H      9.37396310      3.88943118     -1.17654077
  H      7.81071943      3.84377414     -0.36704095
  H      6.95783154      7.86390959      3.19945161
  H      8.45043945      7.86501345      4.18583333
  H      7.26297925      6.55180879      4.37608248
 Cl      4.92138640      4.97886975      8.03582275
 Cl    -50.29420400     39.60308074     43.78779308
 Cl      8.26827276      2.13971538      3.95987974
 Cl     10.90852596      7.49570221      4.28779019
 Cl      6.24416965      5.79957448      0.46676573
