62
Energy =    -96.25794260 au
  N      1.02575821      3.95481365      2.01802814
  C      2.23272055      3.38284874      1.96351806
  N      2.80153421      3.69526674      0.79593821
  C      1.88075731      4.36384856      0.03882598
  C      0.77577343      4.53486380      0.80313167
  C      0.14978230      3.91428539      3.15749428
  C      0.40169973      5.11268883      4.06954758
  C      4.10123397      3.24705180      0.39969521
  H      2.76169747      2.99253694      2.80749058
  H      2.08582041      4.65454755     -0.97074249
  H     -0.16121962      5.00476321      0.58384653
  H     -0.88465353      3.89977527      2.80307869
  H      0.34966150      2.97887690      3.68432194
  H     -0.08723561      4.96884682      5.02876531
  H      0.02603678      6.02781365      3.61639891
  H      1.47173134      5.22618403      4.22795172
  H      4.31075052      3.57989613     -0.61464772
  H      4.12473004      2.15603998      0.44878859
  H      4.84476482      3.65552924      1.08674640
  N      3.24018275      7.61545779      0.89831285
  C      4.48916694      7.59670206      1.34884474
  N      5.29635932      7.17147124      0.38234365
  C      4.54688951      6.97435637     -0.74052078
  C      3.25780365      7.25174011     -0.41597917
  C      2.09407149      7.99030921      1.68341359
  C      1.89018189      9.50125491      1.65309072
  C      6.72322625      7.12651434      0.50354489
  H      4.78642394      7.79136732      2.35519341
  H      4.97993668      6.66057162     -1.66835720
  H      2.36745355      7.22294913     -1.00938228
  H      1.22293768      7.46225792      1.28606478
  H      2.28519162      7.64055162      2.70060563
  H      1.19178875      9.80550671      2.42702176
  H      1.50754178      9.81959446      0.68573602
  H      2.84516271      9.99481470      1.81822680
  H      7.07603874      8.14079284      0.70980511
  H      7.16371139      6.75845525     -0.42022699
  H      7.00253169      6.47868057      1.33448564
  N      6.29256640      9.91341691      5.29511216
  C      6.47373760      9.11880149      6.34076124
  N      5.80316418      7.98797523      6.13654934
  C      5.17817548      8.06622029      4.92379639
  C      5.48844504      9.28016031      4.39388340
  C      6.89549439     11.21529852      5.14158000
  C      7.79624979     11.24688300      3.91299038
  C      5.73173754      6.87081249      7.03412982
  H      7.07287495      9.41947645      7.20767675
  H      4.59828058      7.24708082      4.53460616
  H      5.23598282      9.72063033      3.44497366
  H      6.09969559     11.95837834      5.03764772
  H      7.46025982     11.41039132      6.05931351
  H      8.24384133     12.23166203      3.81597640
  H      7.22697699     11.03166741      3.01096143
  H      8.59258333     10.51320679      4.01288320
  H      5.80415683      5.94345749      6.46628419
  H      4.78021794      6.87470858      7.56973800
  H      6.54533096      6.93585202      7.75356072
 Cl      8.16242768     10.69781866      8.35942204
 Cl      1.61791200      1.07241989      1.49542468
 Cl      3.86864300      5.50421328      3.19931994
 Cl      5.31672203     10.11913849      1.15966870
 Cl     12.75433632    -24.42454504     20.52823279
