#B3LYP/6-31+G(d) OPT FREQ

62, Energy =    -96.25796271 au

0 1
  N      7.53018618      7.49109804      4.44646363
  C      8.65081423      7.68983373      3.76255882
  N      8.37488323      7.69155580      2.46141317
  C      7.02607068      7.55228324      2.31528448
  C      6.49722216      7.42542104      3.55826677
  C      7.42968414      7.44631102      5.87929633
  C      6.96750393      8.79416819      6.42128753
  C      9.33780500      7.95950028      1.43637059
  H      9.63305751      7.69760458      4.18554250
  H      6.55232468      7.55487973      1.35518955
  H      5.48078378      7.27178051      3.85928061
  H      6.73740491      6.64558598      6.15745144
  H      8.41775498      7.20053545      6.27159754
  H      7.01360190      8.80012446      7.50754719
  H      5.94789739      9.00411433      6.10693537
  H      7.61586534      9.57527302      6.02645029
  H      9.76646794      8.94758128      1.62590887
  H      8.85103772      7.93876576      0.46441075
  H     10.12969050      7.20984036      1.46696272
  N      4.72620745      3.71947058      4.18188005
  C      5.41467137      4.16959319      3.13806701
  N      4.66617928      4.05302761      2.04587883
  C      3.46840441      3.51342323      2.39862925
  C      3.50595974      3.30318125      3.74379251
  C      5.17601997      3.71511002      5.55008921
  C      4.43985492      4.77636682      6.36204383
  C      5.03828123      4.40870058      0.70806032
  H      6.43407058      4.52360712      3.18642990
  H      2.69360310      3.39202806      1.66354302
  H      2.80688665      2.83999102      4.40760348
  H      4.96254938      2.71758726      5.96095946
  H      6.25119834      3.90519059      5.54484855
  H      4.84474016      4.80925025      7.36952554
  H      3.38145582      4.53533058      6.42592831
  H      4.54357577      5.76090879      5.90638236
  H      4.11334389      4.58682302      0.13838704
  H      5.59196778      3.59261984      0.24217198
  H      5.66214019      5.29892251      0.72297851
  N      9.25240567      1.93114749      6.83610574
  C      8.61875621      2.11517175      5.68040928
  N      7.79410749      1.09485897      5.47624281
  C      7.90209519      0.24009980      6.53177095
  C      8.81906746      0.76814841      7.38907980
  C     10.19198779      2.83564548      7.45244772
  C      9.47513864      4.09591431      7.92365977
  C      6.93662436      0.91795244      4.34125918
  H      8.73482590      2.96083987      5.01686429
  H      7.30221161     -0.64275210      6.59639796
  H      9.24501142      0.42018345      8.31677483
  H     10.64553171      2.29503307      8.29455028
  H     10.96173553      3.09510639      6.72164103
  H     10.18486152      4.76210874      8.40513609
  H      8.70168498      3.83628838      8.64291472
  H      9.02186351      4.61228180      7.07999365
  H      5.89607635      0.80713000      4.68658252
  H      7.22011207      0.01794404      3.79496540
  H      7.02587628      1.78408242      3.69049306
 Cl     11.06989621      0.58859174      9.73585150
 Cl      9.04863820     10.24774539      3.93362895
 Cl      1.99491569      4.58711897     -0.38444269
 Cl      8.57609263      4.72345504      3.71799340
 Cl      4.04510838      0.67487340      5.83811796

