#B3LYP/6-31+G(d) OPT FREQ

62, Energy =    -96.25872648 au

0 1
  N      5.73954151      2.60361531      6.85597077
  C      4.99639654      2.21742071      7.89364543
  N      3.81793475      2.83620492      7.85000075
  C      3.83491321      3.68907283      6.78479303
  C      5.03070067      3.54136517      6.15944685
  C      7.09155793      2.18343774      6.57649136
  C      7.14196054      1.00750049      5.60648664
  C      2.82094315      2.78426202      8.87938927
  H      5.26308105      1.43635982      8.56671997
  H      3.00878811      4.32961647      6.55461598
  H      5.42836683      4.02954116      5.29385403
  H      7.61781056      3.04497812      6.15466465
  H      7.56024264      1.92014054      7.52651532
  H      8.15473922      0.89605124      5.22955734
  H      6.47632134      1.17827281      4.76192404
  H      6.87923080      0.06780419      6.08810704
  H      2.42408364      1.77124226      9.01960425
  H      2.00304771      3.45245343      8.62250229
  H      3.28163612      3.11120016      9.81297642
  N      1.36503262     10.32771689     -2.35884927
  C      2.31747762     10.62591605     -1.48240578
  N      2.31590259      9.71063947     -0.52048142
  C      1.33030788      8.80351152     -0.79317978
  C      0.73479130      9.19211826     -1.95323209
  C      1.06109922     11.04225655     -3.57511550
  C      2.21923242     10.93140282     -4.55939033
  C      3.21724644      9.71506418      0.59744751
  H      3.02636210     11.45223282     -1.48584775
  H      1.13181744      7.96636382     -0.15619947
  H     -0.08911133      8.79886918     -2.53436844
  H      0.15104679     10.58603604     -3.98914660
  H      0.87577148     12.09099195     -3.32964707
  H      1.98071922     11.48260276     -5.46436529
  H      2.38323627      9.88975144     -4.82441246
  H      3.13209567     11.33716009     -4.12764340
  H      3.78280738      8.78384185      0.63090009
  H      2.66529196      9.83095273      1.53063424
  H      3.90122693     10.56157848      0.46440997
  N      5.09205409     -1.16196112      9.06675465
  C      4.35219417     -0.54365646      9.98317420
  N      5.15156848      0.17704935     10.76291428
  C      6.43750262      0.00446159     10.33763587
  C      6.39920490     -0.83925671      9.26968773
  C      4.59503958     -1.97721384      7.98332283
  C      3.59717911     -1.19481189      7.13746345
  C      4.71926434      1.08067420     11.78914132
  H      3.26334773     -0.53975987     10.03331113
  H      7.25716787      0.51636169     10.79602549
  H      7.16121257     -1.22934477      8.61040185
  H      5.46754272     -2.27826946      7.39016557
  H      4.11072584     -2.86368827      8.40140115
  H      3.22506950     -1.83205744      6.34057458
  H      4.08091599     -0.33060272      6.68736229
  H      2.75511691     -0.85986361      7.74017121
  H      3.63239777      1.06998589     11.82699637
  H      5.07422777      2.08370779     11.52771394
  H      5.13155816      0.79092160     12.75621260
 Cl      6.07318033      3.46136982      9.87285682
 Cl      1.26790180     -0.03706828      9.78116051
 Cl      7.67118075     -2.26638794      6.70322008
 Cl      4.72106488     12.41598167     -0.63393246
 Cl     -1.53028087      9.05979356     -4.20919479

