62
Energy =    -96.29534524 au
  N      4.79321460      5.13776641      3.95437280
  C      4.87205134      4.25412370      2.96687144
  N      5.05525186      3.04481061      3.48644293
  C      5.08672657      3.16251338      4.84399596
  C      4.91727915      4.48035580      5.13765005
  C      4.63851672      6.55986375      3.78392137
  C      3.17744566      6.97084996      3.92815828
  C      5.26271782      1.82898949      2.75506181
  H      4.91526421      4.53763200      1.91769734
  H      5.25752508      2.31665893      5.47632626
  H      4.94286294      5.00681079      6.06997775
  H      5.24947862      7.04678520      4.54969672
  H      5.00536430      6.80717931      2.78542815
  H      3.09124107      8.04665717      3.80766509
  H      2.79831797      6.70101027      4.91186256
  H      2.56932341      6.48652580      3.16666377
  H      4.42319189      1.14681802      2.89786913
  H      6.17609767      1.35019379      3.12653212
  H      5.36762186      2.06196966      1.69864298
  N      9.28789910      4.22737491      6.04132872
  C     10.03249662      3.44023967      5.27288052
  N     10.97606774      4.17064822      4.69061563
  C     10.82965811      5.46151878      5.09645094
  C      9.76979205      5.49556127      5.95047889
  C      8.15682391      3.80270286      6.82477420
  C      8.58648981      3.42995546      8.23994853
  C     11.96054982      3.71629557      3.75439041
  H      9.81430721      2.40180915      5.08747918
  H     11.44469880      6.24179093      4.69890811
  H      9.28712409      6.31255871      6.44885175
  H      7.44546722      4.63343994      6.84992742
  H      7.71538096      2.94228639      6.31851855
  H      7.71594622      3.12512348      8.81312949
  H      9.04491260      4.28304590      8.73574333
  H      9.29738152      2.60577253      8.22164078
  H     12.95607389      3.75554867      4.19906030
  H     11.92882089      4.39766819      2.89170674
  H     11.73222334      2.69803266      3.45115071
  N      8.33496116      4.46017792      1.67744518
  C      8.40581028      5.76798897      1.47573989
  N      8.09491863      6.40026535      2.59708451
  C      7.82592175      5.46955612      3.55273439
  C      7.97416509      4.24821346      2.97781565
  C      8.52033216      3.43536102      0.68408034
  C      9.58262187      2.43415663      1.11555763
  C      8.12262347      7.81716064      2.80525371
  H      8.65965554      6.24000549      0.54960044
  H      7.52757070      5.76340452      4.54181225
  H      7.87597904      3.26321963      3.39245509
  H      7.55936170      2.93643940      0.52328331
  H      8.81175414      3.92724353     -0.24568827
  H      9.72393328      1.68797197      0.33790918
  H      9.28540602      1.93041399      2.03183947
  H     10.52120377      2.95627805      1.27884619
  H      9.14718710      8.17258666      2.67765920
  H      7.78330835      8.02627992      3.81766289
  H      7.47365491      8.31295342      2.08278585
 Cl      6.72180287      6.85851688      6.47411361
 Cl    -45.30242973     36.96481916     39.70899273
 Cl      8.01061081      1.10677450      4.46779433
 Cl     11.17258682      6.22380835      1.92016640
 Cl      5.70919159      5.73773386      0.38613518
