#B3LYP/6-31+G(d) OPT FREQ

62, Energy =    -96.27207820 au

0 1
  N      5.37973170      8.03200076      2.44066553
  C      6.48189482      7.69790470      3.10628100
  N      7.33718421      7.13217165      2.26297593
  C      6.77125607      7.10604306      1.02605303
  C      5.53963349      7.67510773      1.13616200
  C      4.20362400      8.66393462      2.98289149
  C      4.29797740     10.18024145      2.85942665
  C      8.62188651      6.60178599      2.61261675
  H      6.62715235      7.73819909      4.17568665
  H      7.26293511      6.64369320      0.19558192
  H      4.73903634      7.78539094      0.43173651
  H      3.34750551      8.28617595      2.40615356
  H      4.10850615      8.36921433      4.02961538
  H      3.39071530     10.63400928      3.24864733
  H      4.40307826     10.46732955      1.81589392
  H      5.15226744     10.56430131      3.41613180
  H      9.41708296      7.28005307      2.29613181
  H      8.73991152      5.64242478      2.10360428
  H      8.66174492      6.46959953      3.69123536
  N      5.75126110      9.54980002      7.10920729
  C      5.91174157      8.50480250      7.92418782
  N      4.85006497      7.70655546      7.81463018
  C      3.94674556      8.30843236      6.98630032
  C      4.50791062      9.46011316      6.54409031
  C      6.71260763     10.60336340      6.92278915
  C      7.70165366     10.24290284      5.81725289
  C      4.69223295      6.48481320      8.54305422
  H      6.82934880      8.22973214      8.39874220
  H      2.99292712      7.87220403      6.77137159
  H      4.12492703     10.21784762      5.89297539
  H      6.17396288     11.52424542      6.68108498
  H      7.22901137     10.74205090      7.87597554
  H      8.54041526     10.93412891      5.81740289
  H      7.21861848     10.27762711      4.84234205
  H      8.07298552      9.23298850      5.97502035
  H      5.47549555      5.78560540      8.24125402
  H      3.71482889      6.05562731      8.33351232
  H      4.78782063      6.69779244      9.60979030
  N      5.90799639      3.54932007      3.47284310
  C      5.64773041      3.23308920      2.20510059
  N      4.78886191      4.11701671      1.70729436
  C      4.52505050      5.04810125      2.66679042
  C      5.23293509      4.70133031      3.77297040
  C      6.79461338      2.84158270      4.36393905
  C      8.16289875      3.50863054      4.40652400
  C      4.34181409      4.19643467      0.34867434
  H      6.00667887      2.36020768      1.70039671
  H      3.83100538      5.84239081      2.46030434
  H      5.35817035      5.19461824      4.71556202
  H      6.34288250      2.84037682      5.36091708
  H      6.88083963      1.81119745      4.00575251
  H      8.85441362      2.90943293      4.99222085
  H      8.07770745      4.49304368      4.86022910
  H      8.54326762      3.60950347      3.39384481
  H      5.21175465      4.34559619     -0.29317563
  H      3.66222103      5.04674116      0.26169862
  H      3.83251557      3.27859630      0.05455802
 Cl      7.13452013      6.61410039      5.99732527
 Cl      2.36995250      6.94119258      0.88510158
 Cl      5.42216728      9.58287564     10.09622682
 Cl     27.33110791    -18.01686002     23.08129292
 Cl      7.78192570      3.98779152      0.74975274

