#B3LYP/6-31+G(d) OPT FREQ

62, Energy =    -96.26171004 au

0 1
  N      6.33034395      0.64503754      5.47194526
  C      6.55310740     -0.63085235      5.17148219
  N      7.86109712     -0.83157728      5.07027581
  C      8.49425962      0.35746626      5.28046798
  C      7.53608745      1.28378106      5.53590650
  C      5.03136044      1.20507525      5.73211143
  C      4.67305541      1.03626040      7.20620450
  C      8.44288321     -2.10637525      4.77949793
  H      5.80980871     -1.39689241      5.10655077
  H      9.55973955      0.45443103      5.23387471
  H      7.61735528      2.32996227      5.74841644
  H      5.04111159      2.25959991      5.44247704
  H      4.31969203      0.67325647      5.09677300
  H      3.61136752      1.20301996      7.36240927
  H      5.23337497      1.73720364      7.82124521
  H      4.93189129      0.02741367      7.52213794
  H      8.14752509     -2.80585478      5.56451546
  H      9.52671132     -2.02014606      4.74218657
  H      8.06025255     -2.45693209      3.81927427
  N      2.72166750     -1.76124891      4.01156356
  C      2.31883523     -1.57932047      5.27111240
  N      3.12173540     -2.25973479      6.08480563
  C      4.02123115     -2.94774274      5.31829099
  C      3.77122749     -2.63298581      4.02191416
  C      2.08108059     -1.20060687      2.85213789
  C      2.56144755      0.22414440      2.59719677
  C      3.03789520     -2.34872637      7.51250316
  H      1.56596797     -0.88748242      5.58363399
  H      4.77261326     -3.56338896      5.76849187
  H      4.27726880     -2.91491253      3.12249323
  H      2.33031393     -1.83032851      1.99619478
  H      1.00178409     -1.24401215      3.02711556
  H      2.12333620      0.60542674      1.67887893
  H      3.64617408      0.22448656      2.49533710
  H      2.27802861      0.88086801      3.41711375
  H      4.05482525     -2.35650661      7.91383562
  H      2.51899015     -3.26490718      7.79863828
  H      2.48451009     -1.49688720      7.90074113
  N      8.37213306     13.85366458      6.98454592
  C      9.36892906     12.97908813      7.06271498
  N      8.89127554     11.76264777      6.82471091
  C      7.54807405     11.86654882      6.59161301
  C      7.22367408     13.18481607      6.68989384
  C      8.47032687     15.28736814      7.12320699
  C      9.28504265     15.87491289      5.97734833
  C      9.68995005     10.56913804      6.82230859
  H     10.42557827     13.15169194      7.25748574
  H      6.93743019     11.01401694      6.37497965
  H      6.29377044     13.73085912      6.59729252
  H      7.44246030     15.67577312      7.10821791
  H      8.94607147     15.51879610      8.08101795
  H      9.34856975     16.95283038      6.09174210
  H      8.79890957     15.65801420      5.02997997
  H     10.29033368     15.45860815      5.96526419
  H     10.73393829     10.87243006      6.96551713
  H      9.58262934     10.04538533      5.87249954
  H      9.38547303      9.90535920      7.63228525
 Cl     12.42148223     12.40403306      7.30609778
 Cl      5.18444054     15.64776035      6.78376489
 Cl      6.40186920     -2.05217360      7.61293842
 Cl      0.15126055     -2.94891574      5.15817143
 Cl      5.98378932     -0.57687617      2.61861537

