62
Energy =    -96.24488768 au
  N      8.22936019      9.32081673     11.89320848
  C      8.53364285      8.04364520     11.67576330
  N      9.03124660      7.51849129     12.79295083
  C      9.04317853      8.48510889     13.74963970
  C      8.53517899      9.61867861     13.18423995
  C      7.61379740     10.22687178     10.95523201
  C      6.11257657      9.97463802     10.87515556
  C      9.49898574      6.17341934     12.97322452
  H      8.40621508      7.52238279     10.74743934
  H      9.38161081      8.24536798     14.74424837
  H      8.39843304     10.62645051     13.54236378
  H      7.79733182     11.24705432     11.33478562
  H      8.07922376     10.09225172      9.97582996
  H      5.66943357     10.66386194     10.16253095
  H      5.66057811     10.15183820     11.84728785
  H      5.89476561      8.95350442     10.56120195
  H      8.77999147      5.46444867     12.56540497
  H      9.62819818      6.00964029     14.05718328
  H     10.46037279      6.03669226     12.47730603
  N      1.52759543     -0.50274777      3.49890275
  C      2.02920035     -0.77717169      2.29287393
  N      3.05445791      0.03429080      2.05717652
  C      3.18876130      0.88491220      3.11473544
  C      2.23124490      0.55232453      4.01613165
  C      0.33854403     -1.10643706      4.04144445
  C      0.60232968     -2.52209115      4.54381476
  C      3.87637709      0.07269124      0.87862475
  H      1.71431341     -1.57924905      1.65934930
  H      3.95610675      1.64482192      3.10044679
  H      1.99241841      0.97745144      4.96870466
  H     -0.02129796     -0.47557552      4.85676804
  H     -0.40990427     -1.11113811      3.24161400
  H     -0.31552132     -2.94707762      4.94035931
  H      1.35323749     -2.51569598      5.33148756
  H      0.95278207     -3.15581615      3.73352229
  H      3.25156034      0.20993449     -0.00345717
  H      4.43769593     -0.85614167      0.77695378
  H      4.57049819      0.91498683      0.98697898
  N      1.76942759      2.20557296     -2.21801603
  C      1.66032378      2.26068617     -0.89200839
  N      2.42941992      3.24260498     -0.43493974
  C      3.04965744      3.82526804     -1.50123232
  C      2.63278919      3.17433145     -2.62206487
  C      1.09195221      1.28997558     -3.10745778
  C     -0.39042835      1.19437625     -2.77634032
  C      2.58806080      3.61816466      0.93915527
  H      1.05072954      1.61202347     -0.27913067
  H      3.73745126      4.63541857     -1.37980814
  H      2.83108229      3.31554736     -3.67580853
  H      1.25835218      1.67042238     -4.12667806
  H      1.55971276      0.30350771     -3.02007524
  H     -0.88718301      0.57874278     -3.52124793
  H     -0.84030698      2.18407405     -2.79174213
  H     -0.55213108      0.74815552     -1.79635275
  H      2.41725411      4.68788931      1.05419539
  H      3.60918056      3.38568934      1.28251413
  H      1.87375746      3.06495537      1.54402358
 Cl      5.57599421      2.70811883      1.95950562
 Cl      2.19915272      2.86144101     -5.79093138
 Cl      8.15129430     12.83540750     12.73752513
 Cl      9.82851210      6.34397825     16.14413881
 Cl     -0.04844156      0.16464516      0.98132764
