#B3LYP/6-31+G(d) OPT FREQ

62, Energy =    -96.29659660 au

0 1
  N      5.44173678      6.15982823      4.08623867
  C      5.16121536      5.46389124      2.99116095
  N      4.87701354      4.21327014      3.33974075
  C      4.96959004      4.11290401      4.69565451
  C      5.32185973      5.34039004      5.16515825
  C      5.84142413      7.54347495      4.11160539
  C      4.63912887      8.45308452      4.33826920
  C      4.58757312      3.12784567      2.44828636
  H      5.30803223      5.84615249      1.98582300
  H      4.82869825      3.17691688      5.19463275
  H      5.56060213      5.68231451      6.15214684
  H      6.56395111      7.65858906      4.92453359
  H      6.30882326      7.76358528      3.14938852
  H      4.96817381      9.48758686      4.36485876
  H      4.15645776      8.21884660      5.28497117
  H      3.91720939      8.33834441      3.53207467
  H      3.52509429      2.87931199      2.47626080
  H      5.16331802      2.25502028      2.77389822
  H      4.86875844      3.41093282      1.43680050
  N      8.99454725      3.45847000      6.46550214
  C      9.14801668      2.54400489      5.51345243
  N     10.26077848      2.80761389      4.83857430
  C     10.83781384      3.91766434      5.37348124
  C     10.04240711      4.32532082      6.40035760
  C      7.89136270      3.53651851      7.38743152
  C      8.26549565      2.94058447      8.74017007
  C     10.75066436      2.09212468      3.69829227
  H      8.41386705      1.79335564      5.25407477
  H     11.71319498      4.35186509      4.93404298
  H     10.10324059      5.18202258      7.03895777
  H      7.63059027      4.59624684      7.48966960
  H      7.05410590      2.99445021      6.94561041
  H      7.42107573      3.01919929      9.41854020
  H      9.10674482      3.47727600      9.17280945
  H      8.53331847      1.89047073      8.63640947
  H     11.56759264      1.42750673      3.98456387
  H     11.12816365      2.82964654      2.97836441
  H      9.93973499      1.50881807      3.26959557
  N      8.47488838      4.43377015      1.77841011
  C      9.05350139      5.62700335      1.83458603
  N      8.95741719      6.10008996      3.06661289
  C      8.30849313      5.17872343      3.82880699
  C      8.00362603      4.12899327      3.02137224
  C      8.32609041      3.64937039      0.58021815
  C      9.62068662      2.92511775      0.22099688
  C      9.52405655      7.32037730      3.55891560
  H      9.50974413      6.13238558      1.00913046
  H      8.09777823      5.37758857      4.86167686
  H      7.51390144      3.19887345      3.24152292
  H      7.51712369      2.93521679      0.74657776
  H      8.03090149      4.33720628     -0.21643245
  H      9.62067663      2.64896886     -0.82980048
  H      9.73367683      2.02485886      0.81852885
  H     10.47182098      3.57179389      0.41983324
  H     10.61223668      7.24871869      3.50688156
  H      9.21274399      7.45433939      4.59344713
  H      9.18747418      8.16145933      2.95322316
 Cl      7.79576561      6.79533739      6.82482250
 Cl    -54.81241862     41.45658893     47.19644125
 Cl      6.57799396      1.16298918      4.23438405
 Cl     11.77645334      4.87497131      2.33976180
 Cl      6.66837347      6.76561501      0.63399111

