#B3LYP/6-31+G(d) OPT FREQ

62, Energy =    -96.26294525 au

0 1
  N      4.32327669      4.34364445      3.00456337
  C      4.35553339      4.35740964      4.33633781
  N      4.37509709      5.61658436      4.75062822
  C      4.35636495      6.43244162      3.66155299
  C      4.32025689      5.63186252      2.56132076
  C      4.24709912      3.18192086      2.15372225
  C      2.79644024      2.74432417      1.97486262
  C      4.45611918      6.04909998      6.11349253
  H      4.45848038      3.50663416      4.99230592
  H      4.44084647      7.49516207      3.76044395
  H      4.35804144      5.85105025      1.51083090
  H      4.67806015      3.46031657      1.18384136
  H      4.82960034      2.37707576      2.60800705
  H      2.75625375      1.87251166      1.32845875
  H      2.21979538      3.54232928      1.51264234
  H      2.34919099      2.49212866      2.93542929
  H      3.49911121      6.45911443      6.43955036
  H      5.21964719      6.83239217      6.17203710
  H      4.72585387      5.19803594      6.73462482
  N      9.35057639      3.90519911      6.94564326
  C     10.47297073      4.12691377      6.24857915
  N     10.57521509      3.22407461      5.27278309
  C      9.48050385      2.41506949      5.34613372
  C      8.71573656      2.83682897      6.39081220
  C      8.88500321      4.66805406      8.08032346
  C      7.56459623      5.36777698      7.78746771
  C     11.61316229      3.13923510      4.29376446
  H     11.17214360      4.91606115      6.43570509
  H      9.31785359      1.62007808      4.64942569
  H      7.74243904      2.50581182      6.72175615
  H      8.75069256      3.97695534      8.91920072
  H      9.66351638      5.39098166      8.33819851
  H      7.22170573      5.87957339      8.68216275
  H      6.81768990      4.63132278      7.50149060
  H      7.66731541      6.09628360      6.98866191
  H     11.26485420      3.53351691      3.31118898
  H     11.90379787      2.09999387      4.15051565
  H     12.47305814      3.72323922      4.61276262
  N      7.78337660      5.64917725      1.88753217
  C      8.01895767      5.40882409      0.60657066
  N      8.06201562      6.55659370     -0.05794347
  C      7.81398454      7.56130135      0.83141297
  C      7.64559379      6.99417484      2.05521516
  C      7.70448881      4.59773247      2.87430349
  C      7.67098010      5.12206873      4.29531353
  C      8.16584430      6.66715340     -1.48287392
  H      8.18601971      4.44038060      0.18245127
  H      7.77573858      8.58908858      0.53478757
  H      7.43048888      7.45896958      3.00076950
  H      6.81481503      4.00373194      2.65416816
  H      8.58613080      3.96666739      2.71432632
  H      7.32730061      4.33616196      4.95976782
  H      7.00438973      5.97135015      4.40484671
  H      8.66361971      5.44974106      4.59366907
  H      9.04146168      6.12289117     -1.83750447
  H      8.24156142      7.71525076     -1.76577442
  H      7.26785580      6.22758178     -1.92667715
 Cl      6.62607168      8.30407086      5.09897104
 Cl    -50.61316664     39.11252526     43.69787692
 Cl      5.50222907      2.62374642      6.82936297
 Cl     10.68860122      4.21604782      1.44467724
 Cl      5.45164319      4.91741397     -0.45661562

