62
Energy =    -96.27979604 au
  N      2.56977380      2.55791406      1.69441669
  C      2.95645375      3.81095379      1.92327120
  N      3.44124297      3.89789935      3.15416342
  C      3.36531536      2.66934779      3.73249617
  C      2.81645280      1.82653176      2.81391632
  C      1.99905267      2.06882783      0.46260420
  C      2.96828414      2.24803788     -0.69755186
  C      3.98377098      5.08374925      3.74945098
  H      2.97354851      4.61966007      1.21435661
  H      3.73658257      2.49503389      4.72254130
  H      2.64761516      0.77008883      2.84064494
  H      1.80643587      1.00351038      0.59614433
  H      1.05820925      2.59936048      0.27719943
  H      2.47205829      2.00502728     -1.63310329
  H      3.79308456      1.55809999     -0.54686875
  H      3.34407845      3.26592466     -0.74626851
  H      4.74429075      4.79178999      4.47615800
  H      3.20003990      5.64801798      4.25755813
  H      4.42038759      5.69628803      2.96233061
  N      8.47181316      4.54228996      3.50971772
  C      8.75674214      4.45689461      2.21505175
  N      8.07116425      5.38750576      1.56302817
  C      7.33146361      6.09105829      2.46258863
  C      7.58393413      5.55824941      3.68915926
  C      9.01467846      3.71707852      4.55622843
  C     10.13478771      4.44161132      5.29528576
  C      8.06858756      5.56476880      0.14027782
  H      9.34209127      3.68610213      1.71756359
  H      6.66111557      6.86640871      2.15443609
  H      7.17556294      5.78032014      4.65281462
  H      8.19303042      3.47698705      5.24115764
  H      9.39292087      2.80354637      4.09664971
  H     10.52257280      3.80294974      6.08354529
  H      9.76183778      5.35794176      5.74679586
  H     10.94711636      4.68941115      4.61387315
  H      8.64455018      6.44900978     -0.13710377
  H      7.03563690      5.69634380     -0.18986924
  H      8.51033815      4.68065215     -0.31550472
  N      6.58623932      1.04373068      2.38753250
  C      6.69228940      0.91488437      1.07137937
  N      6.40158997      2.06869515      0.49117474
  C      6.08112330      2.96489914      1.46519437
  C      6.19436047      2.32219968      2.65743476
  C      6.65280261     -0.03725433      3.33836485
  C      7.45853241      0.32939172      4.57446605
  C      6.51617611      2.36063017     -0.90758078
  H      6.98748423      0.02427377      0.55629767
  H      5.76162958      3.96255888      1.22787813
  H      6.05533095      2.67759342      3.66109645
  H      5.62458868     -0.29953855      3.60882385
  H      7.09424887     -0.89584068      2.82729136
  H      7.47435078     -0.51417717      5.25955836
  H      7.01935357      1.18032092      5.08785995
  H      8.48180091      0.57143141      4.29740525
  H      6.02383949      3.30822051     -1.11213044
  H      6.05855150      1.56609666     -1.49516190
  H      7.57845002      2.43005448     -1.15728998
 Cl      9.64337047      2.20388932      0.26594532
 Cl      5.99127040      3.45472013      5.90318342
 Cl      4.18877267     -0.39530951      1.05412270
 Cl      4.72893398      5.94913142      0.39803650
 Cl    -14.05117986     15.08350904     11.46805380
