62
Energy =    -96.25863125 au
  N      6.30462981      9.13134067      5.71265863
  C      6.60874704      9.28705135      7.00210851
  N      6.37170449     10.55320304      7.34815957
  C      5.91217913     11.21680567      6.24639835
  C      5.86595702     10.32242392      5.22304537
  C      6.41590842      7.91822978      4.93779925
  C      5.44406537      6.85926674      5.44057380
  C      6.60006896     11.08570584      8.65984267
  H      6.87535054      8.52885436      7.71844628
  H      5.65850136     12.25675829      6.26958276
  H      5.59013974     10.40956762      4.18262034
  H      6.19579820      8.19035232      3.89746306
  H      7.44289968      7.55030897      5.01106982
  H      5.57206716      5.94607197      4.86633770
  H      4.42303678      7.20806598      5.31804233
  H      5.62025156      6.64662530      6.49265380
  H      5.95356723     11.94312758      8.83178909
  H      7.64102233     11.39518944      8.77103455
  H      6.38856576     10.28596666      9.37958191
  N      2.93613955      6.98236637      2.76587930
  C      2.28975603      6.07142570      3.49919359
  N      1.72133624      6.69122640      4.54404378
  C      1.91403984      8.04147537      4.38889520
  C      2.67587146      8.22091181      3.28337367
  C      3.64985627      6.75875641      1.53486842
  C      2.72751090      6.99172780      0.34372079
  C      0.81292488      6.05921006      5.45525859
  H      2.43407839      5.01639798      3.41154656
  H      1.49275335      8.74594621      5.07668235
  H      3.11658317      9.09704535      2.85031206
  H      4.49025834      7.45890430      1.51414124
  H      4.01711752      5.73185453      1.53356118
  H      3.22707698      6.69961507     -0.57709709
  H      2.46026194      8.04386200      0.28038393
  H      1.81892608      6.40611777      0.46597313
  H     -0.03287473      5.67470853      4.87878736
  H      0.47218253      6.78031329      6.19363385
  H      1.30109475      5.22361862      5.96047452
  N      2.99549896      7.60504443      9.39494282
  C      2.97500589      8.86249539      9.82304228
  N      3.17365479      9.67966344      8.78876356
  C      3.23361365      8.91903529      7.65638547
  C      3.12586111      7.62240981      8.03765154
  C      2.82003204      6.43701072     10.21379674
  C      1.34442395      6.05779848     10.28983233
  C      3.01941478     11.10004864      8.86483435
  H      2.98442187      9.15953422     10.85016383
  H      3.35919374      9.35217810      6.68471770
  H      3.15395787      6.72215470      7.46115273
  H      3.42110591      5.62802745      9.78892088
  H      3.20471859      6.66987337     11.20836618
  H      1.18689093      5.29532202     11.04613406
  H      0.99163391      5.68468744      9.33127807
  H      0.76564977      6.94345309     10.54555156
  H      1.98191817     11.30450506      9.15139934
  H      3.23100265     11.55192897      7.89663489
  H      3.67946440     11.50846678      9.62970031
 Cl      5.97107184      8.09556977      9.77709563
 Cl     21.87891296    -29.79370401     22.35847700
 Cl      0.21985986      5.41672762      2.28585909
 Cl      5.55234122      9.53887037      2.13293700
 Cl      0.48871402      9.42621665     10.07233328
