62
Energy =    -96.29185332 au
  N      5.29057414      6.49748032      3.98529022
  C      5.01913397      5.53012320      3.11802358
  N      4.59549433      4.46228117      3.78530248
  C      4.59235769      4.76018421      5.11469689
  C      5.02632942      6.04365329      5.23958375
  C      5.80463869      7.79974080      3.64690115
  C      4.68120884      8.82896778      3.59099457
  C      4.26547145      3.18468693      3.22411818
  H      5.23890832      5.59940057      2.05497147
  H      4.32310835      4.03288817      5.85153673
  H      5.23063207      6.64084946      6.10466784
  H      6.53338523      8.07084661      4.41640052
  H      6.28963059      7.71503990      2.67245981
  H      5.09436759      9.80324659      3.34728767
  H      4.17644595      8.89729341      4.55256399
  H      3.95586272      8.55808628      2.82625399
  H      3.19195871      3.00061238      3.29291687
  H      4.79493807      2.41353883      3.79445192
  H      4.57464227      3.16157817      2.18211140
  N     10.26529969      2.87737710      5.81307930
  C      9.06267931      2.80323953      6.38061385
  N      8.72124154      4.00352823      6.82822137
  C      9.72687915      4.87251154      6.53574952
  C     10.69631248      4.16570144      5.89170039
  C     10.94909676      1.78167086      5.17240372
  C     10.32459574      1.49713795      3.81387491
  C      7.47754150      4.32818104      7.46378230
  H      8.41577392      1.94512446      6.39755872
  H      9.64589895      5.91667918      6.76594430
  H     11.60411127      4.48575089      5.42250357
  H     11.99230581      2.07140794      5.03765471
  H     10.89095888      0.90546833      5.82693717
  H     10.80941426      0.63960790      3.35508811
  H     10.47784030      2.37332470      3.18721391
  H      9.26092911      1.29922663      3.91733823
  H      6.69741452      3.70722885      7.02409073
  H      7.26642759      5.38603125      7.29651948
  H      7.53461900      4.13743968      8.53666518
  N      8.25239549      4.09429303      2.14117462
  C      8.88701646      5.24594707      1.95530301
  N      8.80206340      5.97549672      3.05577398
  C      8.10513942      5.26680469      3.98351873
  C      7.75841705      4.08357748      3.41309162
  C      7.98760016      3.13539178      1.09744859
  C      9.26090063      2.47625111      0.56871435
  C      9.44717365      7.23154110      3.29903059
  H      9.36741910      5.54853341      1.04827634
  H      7.88424330      5.69492466      4.94061325
  H      7.23025290      3.24753974      3.83043343
  H      7.30047185      2.38878057      1.50095062
  H      7.47969469      3.68719510      0.29836755
  H      9.13898461      2.20250287     -0.47595145
  H      9.50142709      1.58247711      1.13715180
  H     10.09873443      3.16288870      0.65523984
  H     10.52696823      7.06791738      3.31882594
  H      9.11427841      7.61121693      4.26348566
  H      9.20239379      7.94115785      2.50912943
 Cl      7.65022509      7.56465546      6.51889918
 Cl    -55.90479432     41.81612147     48.03489850
 Cl      6.21002889      1.74724229      5.48995222
 Cl     11.52899116      4.50847799      2.79845629
 Cl      6.48501771      6.10657448      0.43619050
