62
Energy =    -96.24431923 au
  N      5.05411925      4.60926304      8.95214149
  C      4.35159967      5.43512589      8.18601365
  N      4.10619161      4.84087951      7.02254234
  C      4.66264014      3.59292993      7.05725429
  C      5.25542347      3.44748142      8.27369101
  C      5.51168534      4.85363745     10.29815369
  C      4.37393195      4.66533058     11.29409447
  C      3.36784683      5.43163952      5.94040689
  H      4.04480191      6.44975042      8.39994256
  H      4.59661033      2.91770330      6.22969356
  H      5.86035006      2.66808415      8.72290649
  H      6.30814467      4.12007952     10.49499007
  H      5.90091163      5.87180566     10.35461677
  H      4.73423780      4.87874417     12.29693403
  H      4.02487652      3.63615446     11.26853383
  H      3.54386206      5.33214801     11.06745527
  H      3.18742249      6.48111221      6.19052949
  H      2.41458947      4.91938935      5.80781667
  H      3.93347657      5.36092475      5.01204523
  N      6.30124408      8.92385503      2.94019492
  C      6.91329466      8.32501747      3.97233069
  N      6.10401828      8.36951509      5.03994436
  C      4.95761107      9.01034230      4.67591984
  C      5.07969008      9.35434201      3.36558076
  C      6.80288243      9.05459518      1.59553563
  C      6.92222243      7.69460631      0.91511607
  C      6.38811660      7.87007990      6.35536158
  H      7.89153492      7.89079192      3.95393051
  H      4.16008129      9.14234004      5.38339275
  H      4.43391011      9.89247674      2.69509356
  H      6.09104420      9.69638305      1.05787931
  H      7.77989434      9.54521720      1.62375204
  H      7.22906801      7.83316100     -0.11616858
  H      5.96463279      7.18311668      0.91975733
  H      7.65507836      7.06293830      1.41473640
  H      6.67825647      6.81933165      6.31271006
  H      5.47686704      7.98398856      6.95494080
  H      7.19764361      8.44003676      6.81513366
  N      3.32796426      7.54445803     -0.49972994
  C      3.24716150      6.34140144     -1.05891773
  N      4.05836800      6.30162848     -2.10867215
  C      4.66424724      7.51941568     -2.23163321
  C      4.20419899      8.30048048     -1.21751788
  C      2.61864403      7.99370515      0.67632374
  C      2.86232602      7.05908900      1.85468629
  C      4.23869959      5.14147791     -2.93453951
  H      2.70808784      5.45071516     -0.72567836
  H      5.36383828      7.73769316     -3.01176617
  H      4.42103474      9.31422758     -0.91922665
  H      2.97469507      9.00771759      0.88834992
  H      1.54934647      8.02955746      0.45031074
  H      2.33131018      7.42670410      2.72807948
  H      3.92204428      7.01725718      2.09462163
  H      2.51626753      6.05359778      1.62768999
  H      5.29986878      4.94476535     -3.07888964
  H      3.76493426      5.28483922     -3.90605585
  H      3.76564605      4.29788821     -2.41606140
 Cl      3.35550832      8.38563618      7.54808693
 Cl      7.40743990      2.19372909     10.19685906
 Cl      4.30345291     10.97237731      0.58419578
 Cl     41.84084781     13.02883517    -13.11504685
 Cl      2.55540393      3.39318334     -0.68060902
