#B3LYP/6-31+G(d) OPT FREQ

62, Energy =    -96.14611351 au

0 1
  N      1.26049120      6.78857857      6.30320430
  C      2.43413220      6.21385016      6.65566868
  N      2.12769337      5.53502958      7.79246297
  C      0.79979470      5.69436425      8.13062591
  C      0.25454506      6.48542535      7.17905096
  C      1.03542896      7.55659231      5.10530773
  C      0.76382032      6.63601428      3.91818794
  C      3.05647011      4.74025408      8.53920138
  H      1.79875849      7.65971531      9.64043553
  H      0.37333291      5.23090412      8.99798961
  H     -0.72571316      6.90255050      7.05984645
  H      0.16561780      8.20016892      5.28139595
  H      1.91872763      8.16836733      4.90310522
  H      0.60788457      7.22867049      3.02118450
  H     -0.13290471      6.04939714      4.10312821
  H      1.60359142      5.96019651      3.75897657
  H      2.63170585      3.75640237      8.75513026
  H      3.31717819      5.21926508      9.48920603
  H      3.96112041      4.61121271      7.94670170
  N      2.71350680      9.54835717      9.27895526
  C      2.66842333      8.25224987      9.95143278
  N      2.61414008      8.51719969     11.38650405
  C      2.79110761      9.90833863     11.51279140
  C      2.76436954     10.49638175     10.31793204
  C      1.72200349      9.76195246      8.22790348
  C      0.28301436      9.85578458      8.71976520
  C      3.36809167      7.62396570     12.22152112
  H      3.58325233      7.68062732      9.69621963
  H      2.86835736     10.34722423     12.48905101
  H      2.77967656     11.54166900     10.07821171
  H      1.99971871     10.68287329      7.70745005
  H      1.82109801      8.93355522      7.52715523
  H     -0.39990927      9.78399140      7.87431152
  H      0.11159100     10.79289613      9.24601832
  H      0.05569254      9.03539717      9.39747095
  H      3.33774974      7.98400067     13.24871099
  H      4.42089833      7.52991736     11.90706636
  H      2.91148384      6.63303614     12.18657907
  N      6.31247917      9.26219925      9.26480152
  C      5.58383060      9.54337619      8.18808501
  N      5.29969996      8.42462478      7.53843302
  C      5.86717644      7.39260227      8.21717435
  C      6.50314448      7.91659945      9.30084042
  C      6.90847473     10.20322780     10.18002586
  C      6.29638545     10.09943164     11.57110055
  C      4.59563524      8.30701904      6.29921482
  H      5.28774688     10.52435506      7.87899494
  H      5.78696960      6.38163493      7.87703960
  H      7.11650659      7.45158069     10.04452077
  H      7.98140421      9.97893237     10.22335357
  H      6.76713457     11.20441755      9.77134022
  H      6.73263470     10.85759584     12.21515046
  H      6.50315384      9.12503597     12.00646650
  H      5.21851634     10.24905658     11.52721611
  H      3.88024982      7.44522740      6.34689635
  H      5.31525111      8.15115356      5.49503794
  H      4.05250606      9.22803873      6.10751218
 Cl      7.72068240      9.73321001      5.84914704
 Cl      8.91184825      9.16229486      7.66971854
 Cl     -1.86058684      8.97711883      6.13730271
 Cl      9.87805912      8.56406738      9.77580022
 Cl     11.01337243    -23.87710957      3.40179445

