#B3LYP/6-31+G(d) OPT FREQ

62, Energy =    -96.26083466 au

0 1
  N      7.26272640      8.46691019      4.36714139
  C      8.51457500      8.55764710      3.93798843
  N      8.58129332      8.16812814      2.67034727
  C      7.32702312      7.81791646      2.27651546
  C      6.50177188      7.99782591      3.34173372
  C      6.76289280      8.77485014      5.68592798
  C      7.68678094      9.71778118      6.44021970
  C      9.73529672      8.29146431      1.82832661
  H      9.34968517      8.87196841      4.52004819
  H      7.11548822      7.46577602      1.28760534
  H      5.45297496      7.81390138      3.44985964
  H      5.77515171      9.22833030      5.55908158
  H      6.65074290      7.82331512      6.21874450
  H      7.15875926     10.14352816      7.28890752
  H      8.01290500     10.52217274      5.78356858
  H      8.55824372      9.18959337      6.81685189
  H     10.03846198      9.34021519      1.82651071
  H      9.48027320      7.97967507      0.81841460
  H     10.57655597      7.68797876      2.18862522
  N      6.73027150      4.65196036      9.45264426
  C      6.23360259      4.33447035      8.26050632
  N      5.15445322      3.57654980      8.43505746
  C      4.95171430      3.39830197      9.76702644
  C      5.94298432      4.07726912     10.40672173
  C      7.88886657      5.48425759      9.68582549
  C      7.74919003      6.84092676      9.01512321
  C      4.31793210      3.01657574      7.41129252
  H      6.63816139      4.66978932      7.30748136
  H      4.10718041      2.82082062     10.11360485
  H      6.14369918      4.19203934     11.45179378
  H      8.01877493      5.60570925     10.76163410
  H      8.77949568      4.98839175      9.29516449
  H      8.62720300      7.42100697      9.28206458
  H      6.85583835      7.35722377      9.36106277
  H      7.70875876      6.72355452      7.93667276
  H      3.98965678      3.79835419      6.72810838
  H      3.45767747      2.54808415      7.90277883
  H      4.86925985      2.26692510      6.84351601
  N     11.10704364      7.22139986      6.61545819
  C     11.43626852      7.65556189      5.40319600
  N     11.68320508      8.96081627      5.46201787
  C     11.50154267      9.36938678      6.74985818
  C     11.14134117      8.27413696      7.47524902
  C     10.73496689      5.87635763      6.98609092
  C     11.75576352      4.86306279      6.48765113
  C     12.03763977      9.77971242      4.33622103
  H     11.57226176      7.07516482      4.50001920
  H     11.62627843     10.39005355      7.04603670
  H     10.95378717      8.13156176      8.52855157
  H     10.67556479      5.86414180      8.07820965
  H      9.74692453      5.65859047      6.56400314
  H     11.43976833      3.86394974      6.77461780
  H     12.73121782      5.05967591      6.92827861
  H     11.84630147      4.89901758      5.40508886
  H     12.84616725     10.45577154      4.61018876
  H     11.17382520     10.37165692      4.01006468
  H     12.35671439      9.12129810      3.52710736
 Cl     10.83224919      6.88168964     10.42084876
 Cl      9.02346987     11.24731547      3.47442987
 Cl     12.64758274      6.82706527      2.59018715
 Cl      2.17962044      1.73597723      9.64473831
 Cl      7.43675651      5.58959617      5.56448654

