62
Energy =    -96.27022707 au
  N      6.34891464      4.58705687      6.35540014
  C      7.54689457      4.81433548      5.83166399
  N      8.46060411      4.18753499      6.56934494
  C      7.82671044      3.55378439      7.59596172
  C      6.49591713      3.80250316      7.45971558
  C      5.10485144      5.10080885      5.83923653
  C      4.51572725      6.13285179      6.79427601
  C      9.87534191      4.12675615      6.33247324
  H      7.71088834      5.42971132      4.95094236
  H      8.38781913      2.97276523      8.30533866
  H      5.64552212      3.43405218      7.99676310
  H      5.31871707      5.55624786      4.87029889
  H      4.41492527      4.25712051      5.73572242
  H      3.62289209      6.56691569      6.35192707
  H      5.23234992      6.93017091      6.98380267
  H      4.24309061      5.66302992      7.73807441
  H     10.29029502      3.34816047      6.98053691
  H     10.34229282      5.08282287      6.57370714
  H     10.06794247      3.88763331      5.28714310
  N     10.26832815      7.42937908      2.82367955
  C      9.57212864      7.32325405      1.70190372
  N      9.42638505      6.03887640      1.40158897
  C     10.01852507      5.29680678      2.37376339
  C     10.55134902      6.17188964      3.26757961
  C     10.57946494      8.67196881      3.48159972
  C      9.59520068      8.92442841      4.61833869
  C      8.70101709      5.48687524      0.29547028
  H      9.27082079      8.16828547      1.10710153
  H     10.02128884      4.22224030      2.31868064
  H     11.10443980      5.99795822      4.16726008
  H     11.60548807      8.62051534      3.85866932
  H     10.51955706      9.45324991      2.71463931
  H      9.66682222      9.95311774      4.95928587
  H      9.78970257      8.25798123      5.45828875
  H      8.58368106      8.73551919      4.26831378
  H      7.63086815      5.59941762      0.47448840
  H      8.94249756      4.42544460      0.22584401
  H      8.97147653      6.00323662     -0.62473405
  N      6.92891049      1.80817473      4.12291065
  C      6.57831226      1.38048321      5.33413587
  N      7.65350724      0.91198117      5.95583814
  C      8.72076078      1.04779440      5.11952907
  C      8.26783437      1.60757800      3.96403560
  C      5.98928783      2.29658006      3.13604559
  C      6.56724499      3.39008693      2.25587431
  C      7.68079591      0.32692850      7.26477745
  H      5.58425206      1.46170083      5.76806559
  H      9.70935252      0.76632591      5.41744382
  H      8.79409570      1.84532178      3.05045929
  H      5.69402699      1.44585994      2.51093416
  H      5.10813421      2.64403854      3.68048420
  H      5.83176644      3.65385298      1.49970168
  H      7.46582983      3.04353436      1.75292944
  H      6.80197162      4.28486798      2.82593134
  H      7.72005131     -0.76077856      7.18502555
  H      6.78047801      0.61669081      7.80075004
  H      8.57182501      0.67453202      7.80221562
 Cl      9.71045937      2.20384658      1.06841267
 Cl      7.06042502      6.74314411      3.39697055
 Cl      3.79521194      2.02859601      6.72966026
 Cl     10.39134649      1.68784890      8.60360272
 Cl     10.65756488     10.04195283      0.46035293
