#B3LYP/6-31+G(d) OPT FREQ

62, Energy =    -96.24942316 au

0 1
  N      4.28313302     -2.23237554      5.10452113
  C      3.22633037     -1.48964158      5.44140931
  N      3.19919304     -1.36236903      6.77558699
  C      4.20372688     -2.14772771      7.28997198
  C      4.88525281     -2.68104973      6.24963001
  C      4.67872372     -2.59440951      3.76801796
  C      5.99234194     -1.92105679      3.38907988
  C      2.09977074     -0.78492029      7.49224599
  H      2.66104647     -0.88415720      4.76438464
  H      4.34048395     -2.26416963      8.34503375
  H      5.77867229     -3.28177167      6.21091568
  H      4.80385547     -3.67942774      3.73135151
  H      3.86639965     -2.31129339      3.09465072
  H      6.25750547     -2.17979342      2.36766579
  H      6.77993935     -2.27165416      4.05458575
  H      5.90765423     -0.83937152      3.47057942
  H      2.22720177     -0.95451785      8.55854558
  H      1.18413072     -1.27163300      7.14325723
  H      2.03275910      0.28656862      7.29664254
  N     -0.60227479     10.81394194      3.42953559
  C     -0.60852351     12.12935421      3.61524390
  N      0.34774587     12.45363137      4.47595699
  C      0.97376471     11.31021170      4.86812807
  C      0.38313736     10.28120301      4.21075761
  C     -1.43782594     10.10299777      2.50100531
  C     -0.72134801      9.95320225      1.16145825
  C      0.62579164     13.79536768      4.88444924
  H     -1.24893769     12.82497497      3.11767772
  H      1.77925893     11.31360149      5.57413414
  H      0.57853808      9.22894698      4.24183403
  H     -1.68878942      9.12871053      2.93169507
  H     -2.35656709     10.68062700      2.38423077
  H     -1.41428240      9.62811146      0.38991783
  H      0.08829917      9.23062667      1.23792161
  H     -0.29192266     10.91504604      0.88364325
  H      0.90128837     14.37305601      3.99897234
  H      1.44207457     13.80050573      5.60439235
  H     -0.27548468     14.21553204      5.33510637
  N      8.87785770     -0.36476398      5.56049396
  C      9.04639997     -1.09839696      6.65885713
  N      7.95478396     -1.00740020      7.41309386
  C      7.09517224     -0.13328597      6.81719155
  C      7.67467055      0.27497709      5.66186996
  C      9.86750767     -0.16456027      4.53522690
  C     10.47251526     -1.49136445      4.08909569
  C      7.77032073     -1.71879656      8.64017984
  H      9.84775402     -1.78261735      6.83270196
  H      6.15165639      0.12468609      7.25193992
  H      7.33273272      0.96149164      4.91498388
  H      9.37551492      0.33661022      3.69743452
  H     10.64474950      0.49291595      4.94234234
  H     10.95282761     -1.38069172      3.12014884
  H      9.69411894     -2.24775143      4.02149976
  H     11.21265496     -1.83159465      4.80725404
  H      6.84384022     -1.40038584      9.11229294
  H      8.61490804     -1.50887732      9.29858973
  H      7.72994074     -2.78831046      8.42271485
 Cl     10.55806735      0.49853352      7.93451022
 Cl     -2.54811813     12.24826297      5.43097185
 Cl      0.96322504     13.00707379      1.49667802
 Cl      7.98414765     -3.61667876      5.68896043
 Cl      1.24249724     -2.93233966      5.14842819

