62
Energy =    -96.26304742 au
  N      4.59398238      7.92904475      1.81732544
  C      4.47422449      7.56699439      3.08953540
  N      5.68752626      7.47252119      3.62230208
  C      6.60386311      7.78750116      2.66278705
  C      5.91645459      8.07888916      1.52462393
  C      3.49132305      8.19095573      0.92441403
  C      3.44723924      9.66876827      0.55408528
  C      6.01050348      7.12114039      4.97430135
  H      3.51901631      7.34036441      3.55436527
  H      7.64889436      7.82545390      2.89185749
  H      6.25001442      8.43559405      0.56275886
  H      3.62770598      7.59490788      0.01852337
  H      2.58053539      7.87686811      1.44183518
  H      2.60091742      9.85473464     -0.10060749
  H      4.35989711      9.95360605      0.03373081
  H      3.33802940     10.28117791      1.44617031
  H      6.30889004      6.07311909      5.03071193
  H      5.14518234      7.28552666      5.61127449
  H      6.84995455      7.74122458      5.30197045
  N      2.73483099      3.87336536      4.12182230
  C      2.25855001      3.98793447      2.88584099
  N      3.24259180      4.35997430      2.07151421
  C      4.39628877      4.41266962      2.79688286
  C      4.07891843      4.10936216      4.08023073
  C      1.97805528      3.47215321      5.27694595
  C      2.09994049      1.96738180      5.49543354
  C      3.09834501      4.48704872      0.65327178
  H      1.22595314      3.93233038      2.61523028
  H      5.33896200      4.65316102      2.34842131
  H      4.68970072      4.04774308      4.95719806
  H      2.34399364      4.03332769      6.14200473
  H      0.93772916      3.74862596      5.09749623
  H      1.38862733      1.63246693      6.24516392
  H      3.10530280      1.70576080      5.81780802
  H      1.90064974      1.46024353      4.55330293
  H      2.80417088      3.51187212      0.25507005
  H      4.04181190      4.80121038      0.21240312
  H      2.31933956      5.21620434      0.43031662
  N      8.87039026     10.40541744      1.80320560
  C      9.77733829     10.29925142      2.77407544
  N     10.57376648      9.26022108      2.51426637
  C     10.13154763      8.67264509      1.36132787
  C      9.07127351      9.39345841      0.91425641
  C      7.83473816     11.40644928      1.70003219
  C      6.81837660     11.28273898      2.83284931
  C     11.57283091      8.75969054      3.41204441
  H      9.88453778     10.95862008      3.60913226
  H     10.59769981      7.79910284      0.95561214
  H      8.43130697      9.29478072      0.05083364
  H      8.30919358     12.39271630      1.72492769
  H      7.34769022     11.25549718      0.73115329
  H      6.29439597     12.22446607      2.96719166
  H      7.31151449     11.01372454      3.76334440
  H      6.09132705     10.51260045      2.59958424
  H     12.35777845      9.50083059      3.56884732
  H     12.00438395      7.84716616      3.00838009
  H     11.08066997      8.54943562      4.36742657
 Cl      8.76941719      9.04265232      5.00927138
 Cl      1.50495969      6.68750029      3.46689093
 Cl      6.65436336      9.88637710     -1.14394525
 Cl     34.52799140      0.36571548     26.07260339
 Cl      2.20935563      1.54428545      2.05305976
