#B3LYP/6-31+G(d) OPT FREQ

62, Energy =    -96.28738726 au

0 1
  N      4.79269488      4.08965515      3.60985820
  C      4.81085926      3.88083737      4.92331641
  N      4.98882461      5.03949680      5.54841940
  C      5.08694359      6.01528396      4.60326849
  C      4.96957316      5.42118017      3.38457696
  C      4.67780954      3.04721486      2.61666685
  C      3.96650982      3.52540552      1.36251698
  C      5.06982188      5.26052297      6.96296077
  H      4.75552501      2.91865159      5.39120225
  H      5.27416922      7.03437769      4.86925829
  H      5.06040170      5.84187617      2.39252829
  H      5.68516219      2.69333899      2.37889725
  H      4.14431003      2.21189401      3.07966169
  H      3.88877197      2.70319606      0.65604215
  H      4.51407214      4.33908066      0.88834719
  H      2.96401745      3.87492036      1.60073368
  H      4.13800028      5.69101088      7.33432750
  H      5.88868082      5.96702428      7.15008934
  H      5.26706202      4.32042258      7.47166508
  N      9.46807634      4.08991368      5.99531704
  C      9.85851439      3.15920753      5.13292489
  N     10.87454774      3.63114066      4.41847893
  C     11.13721830      4.90059152      4.83388014
  C     10.25308086      5.18708646      5.82879060
  C      8.39577161      3.95645368      6.94529633
  C      8.90867059      3.38432270      8.26270316
  C     11.57773305      2.96545218      3.36303488
  H      9.34810422      2.22281081      4.99334560
  H     11.87447264      5.50204976      4.34351669
  H     10.07966587      6.08496248      6.38757418
  H      7.97906561      4.95579030      7.09889825
  H      7.65160110      3.29197591      6.49977142
  H      8.09027086      3.31863829      8.97346685
  H      9.67910879      4.02752349      8.68302064
  H      9.32092006      2.38778320      8.11488172
  H     12.57868920      2.68165765      3.69269945
  H     11.66500428      3.68085462      2.53281586
  H     11.02798243      2.08040005      3.05451892
  N      8.19063608      4.81198058      1.66454516
  C      8.52748867      6.08532637      1.53057975
  N      8.46959127      6.68095834      2.71271818
  C      8.09949433      5.75540930      3.63887004
  C      7.92432759      4.57960555      2.98240975
  C      8.05623054      3.86442224      0.59027414
  C      9.01310596      2.69427642      0.76815253
  C      8.82114740      8.03918399      3.00418431
  H      8.78315496      6.56154705      0.60683093
  H      7.96374278      6.02649570      4.66880967
  H      7.63852170      3.61809247      3.36342013
  H      7.01641222      3.52799371      0.55856564
  H      8.26554004      4.39437868     -0.33962386
  H      8.93214082      2.01616421     -0.07734328
  H      8.78042617      2.14800325      1.67885735
  H     10.03034520      3.07169665      0.82528382
  H      9.88445873      8.18545608      2.80413238
  H      8.61668949      8.23015785      4.05598221
  H      8.23802172      8.72016977      2.38386523
 Cl      7.68473632      7.24107828      6.73441705
 Cl    -48.89704729     38.81825544     42.46723381
 Cl      6.99663713      1.73713677      4.70795232
 Cl     11.35938714      5.70980564      1.71291450
 Cl      5.79198016      6.31190616      0.38861041

