#B3LYP/6-31+G(d) OPT FREQ

62, Energy =    -96.27500106 au

0 1
  N      6.94612817      1.22789152      3.13125435
  C      6.08655789      2.24622046      3.13453078
  N      5.22638200      2.07570055      4.12669398
  C      5.54004605      0.93062951      4.78782798
  C      6.62595017      0.39907466      4.16358502
  C      8.05557079      1.07478794      2.22188571
  C      9.17286490      2.04831379      2.57028973
  C      4.12584502      2.94149510      4.41551815
  H      6.01943764      3.07581198      2.44340023
  H      4.94248241      0.58275515      5.60753952
  H      7.19845932     -0.47458984      4.39412373
  H      8.41199888      0.04677689      2.30909910
  H      7.69533650      1.24638033      1.20284900
  H     10.04299819      1.86501752      1.94495160
  H      9.44738536      1.91049426      3.61501080
  H      8.84197811      3.07382485      2.42384820
  H      3.80899981      3.40913945      3.48558046
  H      4.42615105      3.73244691      5.10109517
  H      3.33401671      2.35182287      4.88155073
  N      1.84393334      5.22050660      4.58830385
  C      1.75422485      5.09595735      5.91045313
  N      1.10962907      3.97199576      6.19743126
  C      0.77679878      3.35384554      5.03636131
  C      1.23668547      4.13966065      4.02283105
  C      2.49388084      6.27277911      3.83908307
  C      3.16628728      7.29011126      4.74394347
  C      0.87048906      3.47223256      7.51913696
  H      2.12625004      5.75766286      6.68425296
  H      0.29354665      2.40028359      5.01693665
  H      1.19972585      4.00478781      2.96167794
  H      3.24101162      5.81326253      3.17123616
  H      1.74014278      6.75989110      3.21194531
  H      3.66767683      8.02977606      4.12692791
  H      3.90879040      6.80489576      5.37408745
  H      2.44696535      7.79678509      5.38739784
  H      1.31196673      4.16635809      8.23365630
  H      1.33627866      2.48653752      7.59916540
  H     -0.19997207      3.37788498      7.70162584
  N      5.45309517      3.45874134      7.57328664
  C      6.56236986      3.22841714      6.87510556
  N      6.93915675      4.35014006      6.26827656
  C      6.04731654      5.32725169      6.59527409
  C      5.11012045      4.76929667      7.41029284
  C      4.70877237      2.46919651      8.31687934
  C      4.18635268      3.02138437      9.63396819
  C      8.07126267      4.48562717      5.39768927
  H      7.11669070      2.30570095      6.78219807
  H      6.14417227      6.32903636      6.23147769
  H      4.24806202      5.22165873      7.87937394
  H      3.87192635      2.11172478      7.69752225
  H      5.37747506      1.62278395      8.49026894
  H      3.60510365      2.25136207     10.13345037
  H      3.54287985      3.88229396      9.47228802
  H      5.00817286      3.31802414     10.28493553
  H      7.74020118      4.76994781      4.39772142
  H      8.58758220      3.52198493      5.36417827
  H      8.74822270      5.25059385      5.78020398
 Cl      4.77590941      4.85208441      1.78838626
 Cl      2.52614708      6.25740891      8.74997702
 Cl      8.93769316      1.32253336      5.91053119
 Cl    -29.78306740     25.24238226      1.75977455
 Cl      2.47263379      0.83644485      6.35568149

