62
Energy =    -96.26699457 au
  N      5.60287587      7.07476125      8.50402933
  C      5.81614478      5.77827141      8.29007677
  N      7.10772246      5.51529546      8.48033384
  C      7.71920564      6.65595570      8.91048884
  C      6.77961066      7.63327109      8.92271080
  C      4.33012161      7.74102079      8.43186489
  C      3.65585910      7.75358853      9.79886607
  C      7.70865739      4.21461783      8.46090911
  H      5.10194288      5.10420711      7.86653835
  H      8.76910189      6.67371640      9.12501193
  H      6.85372132      8.66959478      9.17907836
  H      4.49680978      8.75604387      8.05935707
  H      3.71524955      7.20141465      7.70917291
  H      2.62663074      8.09108927      9.71205283
  H      4.18971960      8.40968091     10.48255171
  H      3.67445390      6.74415148     10.20587547
  H      7.37551287      3.66293501      9.34325473
  H      8.79239273      4.33015430      8.47523549
  H      7.39566923      3.67043778      7.57004278
  N     10.86587563      8.43337034      6.58655245
  C     10.67238286      7.22303542      6.06638368
  N      9.37097348      7.05829097      5.83230635
  C      8.71258066      8.16827433      6.27888245
  C      9.64733809      9.03409866      6.74325369
  C     12.13699293      9.00517139      6.94712873
  C     12.64304463      9.93462078      5.84974178
  C      8.75237206      5.85214957      5.36798754
  H     11.44544102      6.55249846      5.75560696
  H      7.64424924      8.22217256      6.21586297
  H      9.56869161     10.03996898      7.10319216
  H     12.00599486      9.56722018      7.87423651
  H     12.83170716      8.18190328      7.13095374
  H     13.59729691     10.36506902      6.13999812
  H     11.92831081     10.74180255      5.69463622
  H     12.77127574      9.39323187      4.91455834
  H      7.67350489      6.00322778      5.34734413
  H      9.01142411      5.04358216      6.05261067
  H      9.11040632      5.59892510      4.36843869
  N      7.33216113     10.33305911      4.22607063
  C      6.57204896      9.39904694      3.65430210
  N      7.35252059      8.56865201      2.96198699
  C      8.64487554      8.98934711      3.10679839
  C      8.63048302     10.09492504      3.89733322
  C      6.87711828     11.39133316      5.09583972
  C      6.25606505     10.82652990      6.37012348
  C      6.88930047      7.37339356      2.32045579
  H      5.51031595      9.30424212      3.74024882
  H      9.46365356      8.47688566      2.64598530
  H      9.41011497     10.73472003      4.28670535
  H      7.75589599     11.99853733      5.33872332
  H      6.14492694     11.99797556      4.55359606
  H      5.69136255     11.60280155      6.87905940
  H      7.03652536     10.46889395      7.03463369
  H      5.59256582      9.99647926      6.13840908
  H      6.28249472      6.82780933      3.05089476
  H      7.73787913      6.76785596      2.01262653
  H      6.27596998      7.61145287      1.45001906
 Cl     10.92941194      5.62856942      8.06605256
 Cl      5.57184342      7.26855276      5.30293710
 Cl      4.89616191      4.60647718     10.39602940
 Cl      0.02327843     -2.47066371    -26.80597015
 Cl     10.07090219     12.30025672      5.69696091
