62
Energy =    -96.27621255 au
  N      8.39153434      6.23875353      1.80804983
  C      7.44658180      5.80787817      2.64464438
  N      7.36462126      6.64828365      3.67360597
  C      8.34428107      7.58900529      3.53525474
  C      8.98393761      7.33843741      2.36537589
  C      8.67502964      5.62892581      0.53589014
  C      7.66455248      6.09307810     -0.51077005
  C      6.44440667      6.47963354      4.75751390
  H      6.72845512      5.05163833      2.42092996
  H      8.50667091      8.35532650      4.26519684
  H      9.80136044      7.84535388      1.89535670
  H      9.69405952      5.89153599      0.24120860
  H      8.61493666      4.54716839      0.67387986
  H      7.73519892      5.48039140     -1.40461204
  H      7.84024555      7.13225960     -0.78083287
  H      6.65671511      6.01454931     -0.10939548
  H      6.59107074      7.26417562      5.49602498
  H      6.61737828      5.50077480      5.20895029
  H      5.42755584      6.52106271      4.36256213
  N      1.52788085      1.96909193      1.82359418
  C      2.18017567      2.26812300      0.70453344
  N      2.38686799      3.57979965      0.66581209
  C      1.84853867      4.13671887      1.78586402
  C      1.30577175      3.12283431      2.51429841
  C      1.09008115      0.66678792      2.26952138
  C      1.93229842     -0.45629744      1.69058972
  C      3.07813020      4.27195917     -0.38409623
  H      2.59066261      1.59241896     -0.04318213
  H      1.92630834      5.18619369      1.98228523
  H      0.83963886      3.09960083      3.48068874
  H      1.14314790      0.68048202      3.36701117
  H      0.04056916      0.53812718      1.98224165
  H      1.57878342     -1.40511123      2.08461884
  H      2.97314835     -0.33029604      1.97297591
  H      1.87394133     -0.48654722      0.60574187
  H      3.74184567      5.01783167      0.05853863
  H      2.36498591      4.78146350     -1.03387382
  H      3.63813096      3.54190044     -0.96698569
  N      5.22193785      2.36934493      2.17620799
  C      4.73355451      3.40048878      2.85673877
  N      4.19805085      2.96234380      3.99091377
  C      4.34383086      1.61278496      4.04013051
  C      4.99046811      1.24093064      2.90067852
  C      5.90563315      2.43715433      0.90744913
  C      7.33650037      1.92819711      1.03974267
  C      3.56452294      3.76226936      4.99688770
  H      4.71514912      4.43124690      2.52078252
  H      3.93621327      1.03729668      4.84584361
  H      5.30074347      0.27578990      2.55910019
  H      5.34990225      1.84251390      0.16689761
  H      5.90095790      3.48160196      0.59271743
  H      7.86331024      2.08907342      0.10332043
  H      7.34945565      0.86278686      1.25404503
  H      7.85510010      2.45065992      1.84288672
  H      4.23150776      3.89038535      5.85013432
  H      2.65837050      3.23837580      5.32744496
  H      3.31368365      4.73384718      4.58001759
 Cl      8.52389170      3.85809806      3.78739359
 Cl     -6.73165675     34.34602885     10.67928882
 Cl      4.63048282      6.43926002      1.74409442
 Cl      4.01263966      0.92427420     -1.41951983
 Cl      1.17810021      1.58914435      5.43983485
