#B3LYP/6-31+G(d) OPT FREQ

62, Energy =    -96.27498227 au

0 1
  N      6.11314009      5.81847515      8.53112321
  C      5.86203124      6.89128104      9.27874575
  N      4.62570915      7.30374835      9.03516062
  C      4.06946790      6.47780392      8.10768671
  C      5.00457326      5.54010026      7.79131359
  C      7.30711438      5.01101430      8.56394391
  C      7.34350534      4.16378999      9.83176534
  C      3.98545463      8.41990877      9.66451014
  H      6.55847677      7.42890900      9.89707028
  H      3.07824041      6.65164859      7.74164534
  H      5.01846947      4.72515593      7.08796996
  H      7.27716225      4.36273450      7.68001369
  H      8.17847659      5.66780478      8.52121917
  H      8.24333832      3.55574839      9.83554755
  H      6.48170593      3.50139189      9.86179020
  H      7.33937169      4.79192141     10.72117359
  H      3.44157258      8.09189420     10.55211466
  H      3.28077914      8.85882845      8.95661732
  H      4.75961090      9.13133070      9.95003392
  N      6.03269715      6.22547810      4.05927083
  C      5.01103314      6.88829333      4.58900099
  N      3.88457996      6.23287302      4.34141695
  C      4.19761336      5.12335190      3.60970988
  C      5.54527694      5.12075927      3.44005127
  C      7.39970502      6.67727125      4.06163165
  C      8.01738577      6.53273127      5.44506342
  C      2.55637895      6.65198077      4.68574741
  H      5.07818294      7.79099140      5.15994496
  H      3.45557258      4.42499147      3.28330492
  H      6.17949856      4.41366193      2.94836364
  H      7.94907675      6.06684473      3.34274402
  H      7.39649802      7.71717226      3.72020978
  H      9.07806630      6.76358781      5.40576309
  H      7.88312898      5.50513681      5.77364297
  H      7.53862385      7.20173874      6.15566392
  H      2.58665204      7.44401750      5.43596590
  H      1.99209707      5.80584884      5.07680334
  H      2.05005098      7.03851519      3.79936842
  N      3.89182887     10.72788996      5.36647269
  C      3.52635991     11.23071662      6.53936770
  N      4.55523294     11.17396700      7.37886848
  C      5.60256037     10.58781144      6.72949628
  C      5.18589783     10.31356170      5.46373272
  C      3.03678997     10.56195599      4.21868833
  C      2.73535198     11.90039313      3.55562746
  C      4.59393974     11.67905595      8.72185632
  H      2.55880319     11.62503587      6.77162111
  H      6.52126934     10.38654023      7.24445352
  H      5.67284046      9.87341083      4.61147416
  H      3.56138631      9.90293293      3.51908732
  H      2.11707643     10.08219554      4.56328492
  H      2.08418289     11.73981122      2.70140197
  H      3.65658481     12.35833920      3.20274004
  H      2.24220455     12.58270363      4.24656735
  H      4.76757113     12.75743603      8.71462816
  H      5.41733320     11.18799303      9.25064879
  H      3.65177863     11.46967844      9.22406337
 Cl    -20.45540203    -10.05179829     -7.49356706
 Cl      6.39381594      3.41209017      5.77779408
 Cl      7.08604017      9.75708773      9.81441243
 Cl      5.28593434      8.74643489      2.53190085
 Cl      1.93100398      9.02548589      7.07832512

