62
Energy =    -96.25342809 au
  N     10.36729043      4.40927566      5.91322316
  C     10.62453670      4.64684652      7.19946922
  N     10.84337826      5.95673644      7.36138888
  C     10.81265714      6.54224873      6.12066504
  C     10.50781063      5.58062189      5.21795419
  C     10.08359591      3.12665097      5.31878914
  C      8.70533070      3.11202312      4.66839491
  C     11.32964614      6.53543118      8.57877549
  H     10.48434052      3.94734194      7.99638896
  H     11.00753432      7.58510012      5.98119431
  H     10.33833175      5.63394680      4.15387786
  H     10.84518690      2.92674073      4.56015977
  H     10.16825213      2.37193168      6.10441176
  H      8.50897181      2.12764742      4.25361073
  H      8.67087726      3.83770011      3.85733076
  H      7.92600310      3.34389516      5.39101608
  H     12.22949423      5.98138073      8.86553601
  H     10.58586399      6.44858145      9.37289657
  H     11.56908858      7.58356709      8.41596570
  N      5.82997124      5.81037459      6.93363229
  C      4.52562010      6.06508970      6.96100459
  N      3.89587264      5.03062899      7.50486134
  C      4.81474480      4.08352678      7.83621994
  C      6.03301594      4.57485205      7.48015917
  C      6.83827696      6.73830419      6.48013193
  C      7.68407545      7.22081314      7.65308618
  C      2.48377594      4.89085389      7.72186509
  H      4.10342225      6.99726531      6.59647662
  H      4.49747937      3.18282589      8.34323004
  H      7.00793624      4.14280608      7.57277908
  H      7.46326378      6.25852428      5.72229492
  H      6.31079760      7.58807510      6.03745225
  H      8.45262180      7.89504551      7.28826341
  H      8.15871706      6.38637417      8.16543160
  H      7.05811979      7.75853928      8.36144549
  H      2.33865587      4.06292101      8.42906633
  H      1.97958906      4.65487205      6.78414904
  H      2.07420066      5.81648698      8.12156055
  N      4.75387945      8.45655772      1.97416269
  C      5.22632176      8.12459544      0.77620599
  N      6.32008531      7.38767896      0.94724404
  C      6.55341226      7.24830701      2.28278129
  C      5.56415548      7.92080669      2.92936382
  C      3.57333484      9.24441481      2.23674870
  C      2.35828194      8.65551847      1.53228137
  C      7.13358666      6.81817855     -0.08984112
  H      4.77091196      8.40027902     -0.17852092
  H      7.40120897      6.68974260      2.63666846
  H      5.36136954      8.07983233      3.97223704
  H      3.43902195      9.26723358      3.32133212
  H      3.74400608     10.26316116      1.87607614
  H      1.47579012      9.23958226      1.77819268
  H      2.19610666      7.62762705      1.84945518
  H      2.50449333      8.67819809      0.45344545
  H      6.54516577      6.12438475     -0.69091290
  H      7.96403511      6.28880377      0.38077717
  H      7.51592076      7.60326755     -0.74264448
 Cl      3.61503665      8.93465946     -1.82036839
 Cl      9.35008650      5.43390649      2.15464986
 Cl     12.98135727      3.87054466      7.69657719
 Cl      2.89089304      2.24875025      9.62583086
 Cl      4.30824237      9.00309038      5.84776725
