#B3LYP/6-31+G(d) OPT FREQ

62, Energy =    -96.26621502 au

0 1
  N      2.47272824      6.52094147      5.67216748
  C      2.41740089      5.75371371      4.58860806
  N      3.36353135      6.13004006      3.74338136
  C      4.06545719      7.14885128      4.31877837
  C      3.50561540      7.40052197      5.52896228
  C      1.65244913      6.39278259      6.84777415
  C      2.49890543      5.92319216      8.02699691
  C      3.59861870      5.54050686      2.45736715
  H      1.67676844      5.00752608      4.36726981
  H      4.89971226      7.61373314      3.83610398
  H      3.76409716      8.11792387      6.29192474
  H      1.20356220      7.36542012      7.07122090
  H      0.86353721      5.67161946      6.62395616
  H      1.86030632      5.68197703      8.87204454
  H      3.19485480      6.70405477      8.32048206
  H      3.05858444      5.03755555      7.73878750
  H      4.28690058      4.69718705      2.55497608
  H      4.02312065      6.28651192      1.78366278
  H      2.63407888      5.18933096      2.07393761
  N      7.65033754      7.21227863      7.42359330
  C      8.50983092      6.26159920      7.07028241
  N      7.82391476      5.18569509      6.70581290
  C      6.49103122      5.44850677      6.83406008
  C      6.38485800      6.72390625      7.28797122
  C      7.96276508      8.55755699      7.84002138
  C      8.80967627      9.26739652      6.79123575
  C      8.42255205      3.95717344      6.26371580
  H      9.59573953      6.29950010      7.02769136
  H      5.73155658      4.73300076      6.57709782
  H      5.53834327      7.34373648      7.52412836
  H      7.00666084      9.07119159      7.98677521
  H      8.50124846      8.52016331      8.79184252
  H      9.03290542     10.27946126      7.12031327
  H      8.26787160      9.32243367      5.84981872
  H      9.74488054      8.73669518      6.62703073
  H      9.49444946      4.13096081      6.13987774
  H      7.97400287      3.64577383      5.32049734
  H      8.25805396      3.17170066      7.00490490
  N      1.62867063      1.28876008      3.76894286
  C      1.99590964      0.99246469      5.00904849
  N      1.28802721     -0.05182813      5.43345879
  C      0.44303628     -0.43455016      4.43860531
  C      0.65865100      0.40850940      3.39176739
  C      2.21591941      2.31759254      2.95141550
  C      2.99596495      1.70992729      1.78998468
  C      1.36098066     -0.69374717      6.71500113
  H      2.73446698      1.55425595      5.55926027
  H     -0.18869600     -1.30005643      4.57278969
  H      0.18809667      0.46467568      2.43264330
  H      1.42930933      2.98804146      2.57907633
  H      2.88568312      2.89007838      3.59633645
  H      3.37990271      2.50935806      1.16131638
  H      2.35721709      1.07079805      1.18026742
  H      3.83378280      1.11888024      2.15831983
  H      2.39981645     -0.86967597      6.98919786
  H      0.81697235     -1.64445869      6.63832261
  H      0.89265166     -0.07181257      7.47804453
 Cl      3.98716864      3.51545479      5.64360289
 Cl     -0.53726379     -3.22481350      5.78095646
 Cl      0.34286601      4.94258201      2.23845160
 Cl      4.52511292      9.31358231      8.06735660
 Cl     11.49250593      5.55512356      6.42489326

