#B3LYP/6-31+G(d) OPT FREQ

62, Energy =    -96.26779628 au

0 1
  N      0.28776884      0.22672983     -0.05383181
  C      0.22153992      0.62713099     -1.32030804
  N      1.43961630      0.94006029     -1.74641698
  C      2.31011720      0.76784368     -0.71139338
  C      1.59028377      0.32542796      0.35183854
  C     -0.85332004     -0.10981374      0.76438547
  C     -0.53322695     -1.19416198      1.78122376
  C      1.79662911      1.44864956     -3.03946905
  H     -0.66438870      0.64558412     -1.91999212
  H      3.35664664      0.98147460     -0.84007134
  H      1.90059576      0.10173942      1.35341561
  H     -1.18867670      0.79969692      1.27239799
  H     -1.65426199     -0.43084831      0.09165151
  H     -1.43911902     -1.46345478      2.31635400
  H      0.19753140     -0.84172905      2.50385734
  H     -0.14249786     -2.08141413      1.28616725
  H      2.85878603      1.71167319     -3.01377990
  H      1.19344639      2.32961462     -3.26263467
  H      1.62652454      0.69567212     -3.81122913
  N      3.04561814      4.01409996     -0.08477304
  C      1.79979078      3.96449951      0.37412829
  N      1.78771434      3.29190373      1.52254265
  C      3.05896731      2.90055867      1.80810150
  C      3.84997494      3.35127392      0.79558276
  C      3.50662613      4.59775600     -1.32123898
  C      2.37693773      5.20800228     -2.12931345
  C      0.61271151      3.01842556      2.29972669
  H      0.90341668      4.28417090     -0.12741298
  H      3.28143148      2.30248606      2.67053455
  H      4.89640135      3.21771815      0.60833890
  H      4.25889781      5.35819781     -1.08132197
  H      4.01438015      3.78984661     -1.87925547
  H      2.76813168      5.54594608     -3.08459824
  H      1.92988854      6.05637747     -1.61390846
  H      1.60194375      4.46866043     -2.31605635
  H      0.75692141      2.08110253      2.84090411
  H     -0.23665984      2.95635342      1.62038676
  H      0.43977469      3.81758176      3.02202609
  N      2.29378367     -0.50245266      9.11429715
  C      1.99724313     -1.59687022      8.41873407
  N      1.87451994     -1.26775600      7.13386738
  C      2.10537223      0.06770071      7.00486782
  C      2.37257189      0.54927832      8.24767271
  C      2.53448746     -0.48604863     10.53567181
  C      4.02314695     -0.33948156     10.83250691
  C      1.55362664     -2.15717088      6.05348927
  H      1.84087885     -2.56127657      8.90358124
  H      2.06923135      0.54748557      6.04352208
  H      2.59991341      1.54530627      8.56658663
  H      1.97149104      0.34027496     10.97879716
  H      2.16681085     -1.44583294     10.92443857
  H      4.17223020     -0.25509581     11.90423701
  H      4.43801705      0.54368030     10.34965021
  H      4.55514902     -1.21789706     10.47995720
  H      1.62856848     -1.60202158      5.11680058
  H      0.54012652     -2.54176800      6.16884815
  H      2.24730164     -2.99717917      6.03997323
 Cl     -0.90192270      3.06505471     -0.86531020
 Cl      2.01453477      0.29508597      3.73263737
 Cl     28.65636409     28.68030823     21.48679698
 Cl      1.55470548     -3.64207074     10.67923664
 Cl      5.02619963      1.91296959     -2.23783403

