62
Energy =    -96.28127005 au
  N      4.05272621      4.61192692      4.02106505
  C      4.37781245      5.28487370      2.92390904
  N      3.78901724      6.47170310      2.94825259
  C      3.07474284      6.57212035      4.09981263
  C      3.23802960      5.40250619      4.77338673
  C      4.57430622      3.32437140      4.41943521
  C      5.38867533      3.44108516      5.70385192
  C      3.99133315      7.49343533      1.96307368
  H      4.98709515      4.95435548      2.09236005
  H      2.53738084      7.45760582      4.36933647
  H      2.86351880      5.09442504      5.72705321
  H      3.74172414      2.62681933      4.55244722
  H      5.20943268      2.96156692      3.61231114
  H      6.11238033      2.63065420      5.73451932
  H      4.75600544      3.39244740      6.58672349
  H      5.92585312      4.38524733      5.71407475
  H      4.64528555      8.26202341      2.37730498
  H      3.03941952      7.93951554      1.67636525
  H      4.47389758      7.03087219      1.09775575
  N     10.42762589      3.54184332      6.09049143
  C      9.69903054      4.41217602      5.39764411
  N      9.87997640      5.63211651      5.89594606
  C     10.78649941      5.54299929      6.90769381
  C     11.13122543      4.23360204      7.03125095
  C     10.56245894      2.13810532      5.78860318
  C     11.74648130      1.92852231      4.85079894
  C      9.35433026      6.83904578      5.32922203
  H      9.01465958      4.14829658      4.61675819
  H     11.11659749      6.40160773      7.45605723
  H     11.80939661      3.75392706      7.70676125
  H     10.70260370      1.59432433      6.72663280
  H      9.63174784      1.79767460      5.31717084
  H     11.71685067      0.92804317      4.43134837
  H     12.69257719      2.07050164      5.37198388
  H     11.68616934      2.65274655      4.04232856
  H      9.67545321      6.87848137      4.28668066
  H      9.74754593      7.69638472      5.87019564
  H      8.26101658      6.85791158      5.36480506
  N      8.28181202      3.68111778      1.50785695
  C      8.39288431      4.93645458      1.09645001
  N      7.88201384      5.74392060      2.01248958
  C      7.42649613      4.98339752      3.03979942
  C      7.67939635      3.68275087      2.72828391
  C      8.74350855      2.49825560      0.82882375
  C      9.78176625      1.78081632      1.68290286
  C      7.73959832      7.16615329      1.92340339
  H      8.82229030      5.24967359      0.16675541
  H      6.95478071      5.44287821      3.88735833
  H      7.52356362      2.77487649      3.28988132
  H      7.88340764      1.84701206      0.64387981
  H      9.16779136      2.80432600     -0.13066189
  H     10.23241004      0.96576203      1.12301122
  H      9.31798674      1.38018959      2.58077635
  H     10.55368684      2.48760935      1.97510514
  H      8.71617544      7.63821208      1.81349348
  H      7.25642170      7.51445565      2.83579622
  H      7.11639195      7.40209896      1.05959615
 Cl      5.97249638      7.19642699      5.09007854
 Cl    -48.74297605     38.68964037     42.64192735
 Cl      7.61203971      1.00510908      4.67318284
 Cl     10.96518330      4.99122172      3.06439992
 Cl      5.60569859      5.27752607     -0.02292994
