62
Energy =    -96.29519267 au
  N      4.88160996      5.26718023      4.10969715
  C      4.94534034      5.28109269      2.78389898
  N      5.01638130      4.02938216      2.34368048
  C      4.98610989      3.19415976      3.41997309
  C      4.89889118      3.97461803      4.53133999
  C      4.82189879      6.43725958      4.94732250
  C      3.37566346      6.83426387      5.22214730
  C      5.15261017      3.61297909      0.97850720
  H      5.07467553      6.18374146      2.20321300
  H      5.08151152      2.13448065      3.30485714
  H      4.91698585      3.72952666      5.57461943
  H      5.33397012      6.19455395      5.88302967
  H      5.34261590      7.23926902      4.41947845
  H      3.35707874      7.71029235      5.86363031
  H      2.84754924      6.02629823      5.72453483
  H      2.86101018      7.07241841      4.29305066
  H      4.20705389      3.21936767      0.60092607
  H      5.90778671      2.81924883      0.93688702
  H      5.46005573      4.46084945      0.37153910
  N      9.87627575      2.79892988      6.47098179
  C     10.65836501      2.49399214      5.43792309
  N      9.92111028      1.92819325      4.48926518
  C      8.62496853      1.90711930      4.90875980
  C      8.59304278      2.45436372      6.15146602
  C     10.28523951      3.50744507      7.65782641
  C     10.01633613      4.99733704      7.48817795
  C     10.39575172      1.53912633      3.19455978
  H     11.71741564      2.63868369      5.39715362
  H      7.84405432      1.53396590      4.27610863
  H      7.76849003      2.68672773      6.79690966
  H      9.72124432      3.11177887      8.50687901
  H     11.35209991      3.32210661      7.81168313
  H     10.44385461      5.55617026      8.31603731
  H      8.94356724      5.16763291      7.45857214
  H     10.46020735      5.33256484      6.55408103
  H     10.98236785      2.36368868      2.78965037
  H      9.53588920      1.34367799      2.55369196
  H     11.01888847      0.64558634      3.26033451
  N      8.61406571      5.42829442      2.24248466
  C      8.79340407      6.52601206      2.96298197
  N      8.37665834      6.30961321      4.20141677
  C      7.91797498      5.03220531      4.27838282
  C      8.06377699      4.47557883      3.04785015
  C      8.88105421      5.29060241      0.83381818
  C      9.67092929      4.02295044      0.54317346
  C      8.34837541      7.26643466      5.26829369
  H      9.22118438      7.43932802      2.60371167
  H      7.52281118      4.64237852      5.19645547
  H      7.83486037      3.48997882      2.69095746
  H      7.92401138      5.28206491      0.30142351
  H      9.43898853      6.17486667      0.51703912
  H      9.96676667      4.00097430     -0.50249740
  H      9.07513612      3.13982125      0.75616095
  H     10.56186302      4.00794635      1.16520404
  H      9.36325488      7.52310099      5.57462546
  H      7.81482304      6.82826210      6.10960603
  H      7.83265207      8.16588027      4.92964385
 Cl      6.44772280      4.72827512      7.39094224
 Cl    -55.45837001     42.22143291     47.83053716
 Cl      7.28738021      1.26525365      1.81003062
 Cl     11.26264729      4.76897425      4.06140939
 Cl      6.45686547      7.88948944      2.09692127
