#B3LYP/6-31+G(d) OPT FREQ

62, Energy =    -96.20224424 au

0 1
  N      3.75315150      1.71202671     11.30374752
  C      4.01407701      1.48915910      9.91097612
  N      3.06397715      0.48419427      9.52749633
  C      2.29149192      0.17784169     10.62725552
  C      2.69877365      0.90991209     11.68158467
  C      4.12688468      2.93495849     11.96104899
  C      3.19053634      4.09105261     11.60833453
  C      2.61623507      0.40124116      8.16534906
  H      3.91815517      2.39589751      9.28673632
  H      1.52478068     -0.56960004     10.57073270
  H      2.35076520      0.90146651     12.69574414
  H      4.10978143      2.75365300     13.03995717
  H      5.15381005      3.17190021     11.67390275
  H      3.55348120      5.01409911     12.05262375
  H      2.18763690      3.89095313     11.98249160
  H      3.13396943      4.21177884     10.52941855
  H      2.46624553      1.40646476      7.75893299
  H      1.68075103     -0.15375696      8.12146787
  H      3.36605408     -0.10647873      7.55478424
  N      5.78542643      0.74685511      8.32355674
  C      5.51925049      0.97586003      9.71422848
  N      5.72035247     -0.30410694     10.33414768
  C      6.11627090     -1.19562836      9.35731160
  C      6.15680852     -0.57081764      8.16589672
  C      6.17902623      1.81597484      7.44586514
  C      7.63357883      2.23800447      7.65924694
  C      6.13979060     -0.37084814     11.70713042
  H      6.16157525      1.74983087     10.16848388
  H      6.30542158     -2.22374531      9.59600699
  H      6.38095021     -0.96547033      7.19434525
  H      6.03442866      1.47315152      6.41685552
  H      5.50511901      2.65761112      7.61860475
  H      7.85231548      3.13317403      7.08374838
  H      8.30898823      1.44230440      7.34834213
  H      7.81826886      2.44461022      8.71015357
  H      6.90066464      0.39004102     11.90771736
  H      6.54803154     -1.35820996     11.91588232
  H      5.28879899     -0.18561076     12.36563400
  N      4.82942289      6.66398975      9.80963503
  C      5.62081363      7.02396888     10.81741585
  N      6.55211159      6.08916471     10.97264182
  C      6.35958878      5.11617248     10.03855337
  C      5.27441145      5.47735469      9.30635771
  C      3.67888633      7.38471532      9.31763436
  C      2.81561106      7.91444895     10.45400874
  C      7.59080996      6.06979565     11.96172326
  H      5.51844949      7.92993298     11.42227309
  H      6.97937848      4.24126532     10.01778434
  H      4.75254489      4.96447323      8.51829296
  H      4.02445807      8.21994990      8.69852696
  H      3.11635766      6.68917928      8.68887823
  H      1.97009345      8.45869523     10.04177607
  H      3.38563533      8.58724887     11.09284296
  H      2.43881952      7.09174131     11.05649378
  H      7.25413015      6.59158478     12.85471142
  H      8.48699205      6.56324071     11.58086544
  H      7.83042467      5.02868347     12.18611696
 Cl      7.63353278     15.13172485    -17.46943653
 Cl      5.16173226      9.63404921     12.51035754
 Cl      7.93185509      2.60739045     11.44867313
 Cl      2.99851415      3.80957693      7.67411549
 Cl      9.78992902     15.96312208    -16.81318804

