62
Energy =    -96.25784415 au
  N      2.95568505      2.42219008      4.14648995
  C      3.92446314      2.75599374      3.30224300
  N      4.90677745      3.33707295      3.98199234
  C      4.55154157      3.37779275      5.29907917
  C      3.32287818      2.80215880      5.40126970
  C      1.69643008      1.78749126      3.83414254
  C      1.83444854      0.76092173      2.72226626
  C      6.12841226      3.80578167      3.39122306
  H      4.00994103      2.55921435      2.23647671
  H      5.18312676      3.80486391      6.05048464
  H      2.70151762      2.55352769      6.24682844
  H      1.34650145      1.32229987      4.76725652
  H      0.97931601      2.56267814      3.54377284
  H      0.86938086      0.29288359      2.54872314
  H      2.54413421     -0.00907187      3.00981814
  H      2.17239472      1.21651260      1.79482934
  H      6.98508182      3.40655342      3.93318520
  H      6.17080919      4.89545490      3.41069736
  H      6.14719581      3.45829569      2.35323560
  N      5.14979827     -1.08158458      2.96075344
  C      4.40381320     -1.71910395      3.87283719
  N      4.40513888     -1.01173327      5.00387011
  C      5.25314032      0.05067644      4.83492781
  C      5.71447408      0.00756468      3.56054693
  C      5.43990619     -1.57812742      1.64119672
  C      4.39418525     -1.12592334      0.62909217
  C      3.71327470     -1.33856841      6.21771008
  H      3.73861408     -2.52956315      3.66190480
  H      5.45040240      0.73353633      5.63469604
  H      6.36372938      0.66266911      3.01755671
  H      6.41907887     -1.19652041      1.34724643
  H      5.49093364     -2.66794534      1.71652339
  H      4.61376407     -1.56127332     -0.34194214
  H      4.42203820     -0.04194689      0.53628396
  H      3.39698927     -1.43500960      0.93415145
  H      2.94285711     -0.58771673      6.43926687
  H      4.41984842     -1.37655652      7.04603612
  H      3.25146567     -2.31600463      6.10808858
  N     12.47330904     11.50294977      8.96787992
  C     11.60429337     11.67323772      7.97795684
  N     11.34020213     10.49196900      7.43227719
  C     12.06518482      9.54156754      8.09540630
  C     12.77564931     10.17991441      9.06439798
  C     12.98656584     12.52521711      9.84714390
  C     11.87572132     13.05910253     10.74357532
  C     10.43867485     10.29575241      6.33180653
  H     11.13496595     12.58789441      7.61939964
  H     12.02085464      8.50419116      7.83514821
  H     13.49203245      9.84586165      9.80336838
  H     13.78030397     12.05674682     10.44538045
  H     13.40128086     13.33400061      9.24082615
  H     12.27323948     13.83286470     11.39367158
  H     11.48157413     12.25814723     11.36386522
  H     11.06775410     13.47821729     10.14710180
  H      9.64597915      9.60170214      6.61142289
  H     10.97330560      9.89816768      5.46868170
  H     10.00711653     11.27250092      6.08269568
 Cl      9.73546231     13.54380811      6.33261134
 Cl     15.05251994     10.36396445     11.30070109
 Cl      1.30270046      0.91572797      6.98490619
 Cl      5.23524984      2.30542231      0.53389316
 Cl      5.89173926     -3.66502069      4.31484170
