#B3LYP/6-31+G(d) OPT FREQ

62, Energy =    -96.27697315 au

0 1
  N      9.00353236      5.96254542      8.27985600
  C      9.45484813      6.82140545      9.19190039
  N      8.42568545      7.40580857      9.79300378
  C      7.27952086      6.93237148      9.22512477
  C      7.63855438      6.03715869      8.26732758
  C      9.85020164      5.22200319      7.37416185
  C      9.17668919      3.96490998      6.84947209
  C      8.48609917      8.44412858     10.78106963
  H     10.48543578      6.97676531      9.43533609
  H      6.32276451      7.30922451      9.53640377
  H      7.03216579      5.50451592      7.55916242
  H     10.12025497      5.88991816      6.54984045
  H     10.76798478      4.96943042      7.91550791
  H      9.87187426      3.42159398      6.21550258
  H      8.29616959      4.20720500      6.25931129
  H      8.87778831      3.31892252      7.67226113
  H      8.67754056      8.02861452     11.77195254
  H      7.52068102      8.96066117     10.77670887
  H      9.27935904      9.14133683     10.51658583
  N      5.71113278      8.53950689      2.98232647
  C      6.45404234      7.60742342      3.57113050
  N      7.49135608      8.18944209      4.16648598
  C      7.41293022      9.52969796      3.94417539
  C      6.29394835      9.75115661      3.19907423
  C      4.48747276      8.35940820      2.23859360
  C      3.88691899      6.97804611      2.42841201
  C      8.49567008      7.47317211      4.89743639
  H      6.23772626      6.55822221      3.67909263
  H      8.14247671     10.21065366      4.33109306
  H      5.81084945     10.65408449      2.87734518
  H      3.80546281      9.16085893      2.56675960
  H      4.70173137      8.53527917      1.17875626
  H      2.91278030      6.94631131      1.94861796
  H      3.75799543      6.74991122      3.48294530
  H      4.51456219      6.20671265      1.98534954
  H      8.88147555      8.07410012      5.72344411
  H      9.32591824      7.21193760      4.23871794
  H      8.03263873      6.56036857      5.27550184
  N      5.19850068      9.39279647      6.43717915
  C      6.26301155      9.43295202      7.23371226
  N      6.71223090     10.67765345      7.30289331
  C      5.89662981     11.46119019      6.54269526
  C      4.94422384     10.65717358      5.99837614
  C      4.37379665      8.23304184      6.19863665
  C      3.37597648      8.05735875      7.34024885
  C      7.79017318     11.10489768      8.14481518
  H      6.71175080      8.59067179      7.71779149
  H      6.04199350     12.51683594      6.44550016
  H      4.16836867     10.88434251      5.28598843
  H      3.84513971      8.39389297      5.25713751
  H      5.01494820      7.34982135      6.11989065
  H      2.90451701      7.08130978      7.27380570
  H      2.60941720      8.82768863      7.29765950
  H      3.89037516      8.13832244      8.29481735
  H      7.46340498     11.01706409      9.18315187
  H      8.04859699     12.13631947      7.91828942
  H      8.65611827     10.45535933      7.99209921
 Cl      6.13573219      5.09272196      5.41897982
 Cl     10.20008771      8.78901117      7.50248620
 Cl      5.43978382      9.52824546      9.99583851
 Cl     23.92289521    -20.71278985     -9.58257950
 Cl      3.43701373     11.26503453      3.15642607

