#B3LYP/6-31+G(d) OPT FREQ

62, Energy =    -96.24690876 au

0 1
  N      1.70877567      0.91490882      1.28573909
  C      0.86475633      0.21836197      2.03930796
  N     -0.34391417      0.27746590      1.49472619
  C     -0.26809440      1.03097216      0.35845598
  C      1.02400589      1.43680040      0.23212319
  C      3.10625473      1.14267124      1.56133277
  C      3.26293802      2.12536021      2.71616979
  C     -1.50408107     -0.36756500      2.04108573
  H      1.04052766     -0.31363669      2.97762709
  H     -1.11916183      1.22235116     -0.26169327
  H      1.53213210      2.00919702     -0.52528526
  H      3.57208466      0.18866512      1.81684967
  H      3.55531176      1.54035310      0.64577165
  H      4.31754622      2.29983734      2.90811936
  H      2.80235045      1.72612585      3.61700170
  H      2.79197771      3.07415417      2.46873461
  H     -1.84576650     -1.16226836      1.37693782
  H     -2.30827954      0.35494385      2.17887140
  H     -1.21222415     -0.79578873      3.00906985
  N      9.63486715     10.66469108      2.41100870
  C      8.49697108     10.21021799      1.90005629
  N      7.53422067     10.33158927      2.80872122
  C      8.08333758     10.87629194      3.93522367
  C      9.40395319     11.08796323      3.68201377
  C     10.91317908     10.73914378      1.74293698
  C     10.84115088     11.67145885      0.54131150
  C      6.16645652      9.93827752      2.61619741
  H      8.32720914      9.83444787      0.90406142
  H      7.50593550     11.07010393      4.81511408
  H     10.22746156     11.48833651      4.26645541
  H     11.63074237     11.11069576      2.48990868
  H     11.20132099      9.73376734      1.42322719
  H     11.81007031     11.70139476      0.05206599
  H     10.58590471     12.67732692      0.86184958
  H     10.09712052     11.32954700     -0.17470115
  H      5.49739382     10.71637679      2.98303464
  H      5.95873167      9.00824642      3.14901148
  H      6.00319882      9.78735993      1.54578957
  N      4.84636266      5.80662599     -1.47461504
  C      5.38417986      6.99898898     -1.74502211
  N      5.06568344      7.34053837     -2.99736650
  C      4.31048001      6.33223111     -3.53192916
  C      4.17086458      5.37786564     -2.57509940
  C      4.92054852      5.10407452     -0.21747466
  C      4.09729376      5.82084631      0.84749851
  C      5.46996715      8.55527616     -3.64483735
  H      5.95843377      7.63081578     -1.08554051
  H      3.93522776      6.37216103     -4.53345648
  H      3.68055489      4.41920117     -2.57506725
  H      4.53346456      4.09372846     -0.39369781
  H      5.96726463      5.04970827      0.09245463
  H      4.21033945      5.31188206      1.80010467
  H      3.04487962      5.81722054      0.57448777
  H      4.42924443      6.85150852      0.95796971
  H      4.60276529      9.07019490     -4.05899916
  H      6.17685556      8.34456508     -4.44887442
  H      5.95001327      9.19280025     -2.90068871
 Cl      6.70215263      9.69344004     -0.69420418
 Cl     12.32447481     11.93227102      4.46215146
 Cl      0.27332993     -1.28357555      4.65077464
 Cl    -22.69763104     23.01719161     29.44525289
 Cl      3.53212522      2.36485777     -1.59616485

