62
Energy =    -95.74051726 au
  N      5.05134045     10.01050613      8.91407479
  C      5.46470875     10.75685942      9.94519931
  N      5.52673331      9.97445674     11.02728262
  C      5.17405639      8.70122633     10.67543901
  C      4.87471988      8.72262983      9.33932472
  C      4.90711006     10.47872558      7.53081976
  C      5.85086332      9.74249711      6.59847246
  C      6.07761866     10.36310142     12.32051995
  H      5.76746940     11.78745421      9.90251762
  H      5.18783372      7.88926721     11.37907801
  H      4.58647296      7.92957394      8.67455416
  H      3.86540977     10.33624762      7.24471256
  H      5.11701976     11.54572424      7.54412771
  H      5.71658209     10.12495799      5.58758648
  H      5.65252823      8.67275934      6.59430252
  H      6.88264501      9.89126851      6.90123248
  H      7.06255893      9.91582957     12.42349683
  H      5.40918969     10.01816286     13.10470396
  H      6.17651172     11.44230650     12.34792020
  N      3.67033842      5.23269269      2.96474200
  C      3.45723308      5.57208175      1.68781776
  N      4.61465857      5.99639163      1.17087226
  C      5.58902474      5.90006347      2.12513747
  C      4.99335134      5.41597139      3.25919651
  C      2.66644559      4.66299236      3.87086952
  C      3.05307447      3.26378776      4.31213891
  C      4.84732211      6.31236240     -0.23376730
  H      2.53682464      5.45608634      1.14467439
  H      6.61387203      6.15182145      1.92294638
  H      5.41134148      5.16774048      4.21711585
  H      2.56968282      5.34062854      4.71865661
  H      1.72610496      4.65957560      3.32454257
  H      2.27985703      2.87729680      4.97467778
  H      4.00084062      3.26229051      4.84639557
  H      3.14987872      2.60440006      3.45528023
  H      5.39836978      5.49141831     -0.68450109
  H      5.40981760      7.23994432     -0.29633766
  H      3.89000553      6.40978923     -0.73303396
  N     10.14889489      6.33678587      2.48911970
  C     10.05115668      5.93584734      3.76223787
  N      8.97644371      6.51986337      4.30151759
  C      8.36175751      7.28443965      3.34921795
  C      9.10138943      7.16823283      2.20261320
  C     11.16078818      5.87902854      1.52997604
  C     10.52425610      5.13973115      0.36797761
  C      8.43020096      6.22917237      5.62216128
  H     10.67934344      5.21312422      4.25077039
  H      7.45122442      7.81985186      3.54629288
  H      8.94377818      7.58205618      1.22391369
  H     11.71388055      6.75612370      1.19517803
  H     11.84004755      5.23511710      2.08379016
  H     11.30858453      4.81228222     -0.31305423
  H      9.83309879      5.77741167     -0.17915876
  H      9.97385912      4.27290234      0.72017214
  H      7.54602286      5.60941937      5.50009988
  H      8.18423462      7.16622387      6.11425834
  H      9.16976627      5.67885054      6.19260255
 Cl      0.11871663      0.59568224      2.42671842
 Cl      8.30075967      5.10068669      1.43824120
 Cl      7.54919300      4.46531964      3.85966512
 Cl      4.51295002      3.83201334      1.79540188
 Cl      8.42185719      9.62105715      1.34477393
