#B3LYP/6-31+G(d) OPT FREQ

62, Energy =    -96.27086165 au

0 1
  N      7.19641840      4.55781691      4.01994379
  C      6.68629041      5.64714538      3.45013998
  N      6.41423744      6.54701249      4.39390378
  C      6.83139407      6.04504493      5.59076589
  C      7.31881250      4.79989681      5.35675594
  C      7.65887946      3.34693210      3.38444948
  C      7.49013641      3.39009837      1.87696758
  C      5.87545111      7.84986052      4.13475136
  H      6.40515154      5.75739983      2.42576208
  H      6.75790401      6.60425652      6.50140549
  H      7.71213214      4.06155204      6.02339179
  H      8.72110171      3.23437110      3.62490782
  H      7.11267592      2.51116146      3.83703636
  H      7.92214125      2.49409595      1.43895733
  H      8.00933283      4.26049769      1.48198733
  H      6.43965488      3.43928881      1.60156966
  H      5.88989170      8.43764276      5.04960285
  H      4.84820861      7.75800127      3.76560140
  H      6.49162908      8.33444622      3.37633475
  N      3.74772738      1.69108576      1.98549633
  C      3.20132224      2.40417941      1.00799077
  N      3.15899527      3.67892092      1.38403793
  C      3.69954808      3.78032575      2.63217552
  C      4.06767784      2.52755645      3.01344330
  C      3.96076126      0.26477853      1.94145309
  C      5.43365111     -0.06885604      2.14091193
  C      2.65260116      4.78704301      0.62471217
  H      2.84217731      1.95554946      0.08383304
  H      3.74065750      4.72597653      3.13755138
  H      4.54241644      2.17420465      3.91200785
  H      3.36796339     -0.19950876      2.73513464
  H      3.59505977     -0.07963576      0.96827862
  H      5.57640710     -1.14300800      2.06292941
  H      5.77038221      0.25577680      3.12277015
  H      6.03741355      0.41824851      1.37913642
  H      3.36779977      5.07683791     -0.14683143
  H      2.50466800      5.62799152      1.30684357
  H      1.71209081      4.51513051      0.14884745
  N      4.65900054      4.48771479      7.65787313
  C      4.30093926      5.67300748      8.14273226
  N      3.65606763      6.34129390      7.19520817
  C      3.59767743      5.57011726      6.07260468
  C      4.22963531      4.40188436      6.36708627
  C      5.35761079      3.45070524      8.37561378
  C      4.48191637      2.88430383      9.48796599
  C      3.11883478      7.66141353      7.36004243
  H      4.44892653      6.07310994      9.14427523
  H      3.14581481      5.92560272      5.16098223
  H      4.43149653      3.52918008      5.77843208
  H      5.61837248      2.67402605      7.64966150
  H      6.27211692      3.87344769      8.80075032
  H      5.02188938      2.10522974     10.01901097
  H      3.57573812      2.45289859      9.06847688
  H      4.20804234      3.66765245     10.19160306
  H      2.05583154      7.66217376      7.12026625
  H      3.62077806      8.35741930      6.68751119
  H      3.27161763      7.96030908      8.40006758
 Cl      4.07678917      7.47573316     10.68527771
 Cl      5.87858737      1.47973461      5.62689040
 Cl      2.70897436      6.98132774      3.22011373
 Cl      8.82243175      6.74739889      2.47345140
 Cl      2.38180246      0.27822771     -1.14935045

