62
Energy =    -96.14103679 au
  N      4.11947289     -0.56033690      4.95247728
  C      2.92873084      0.04154788      4.95163351
  N      2.02025512     -0.79877475      5.46664954
  C      2.66461173     -1.96337006      5.79693095
  C      3.97653392     -1.80902036      5.47943226
  C      5.37916510     -0.00210663      4.52691999
  C      5.87044845      1.04119146      5.52498986
  C      0.62170649     -0.51778516      5.61236848
  H      2.69695479      1.03905695      4.61981406
  H      2.14670157     -2.79620927      6.22832007
  H      4.83781491     -2.46666399      5.53178518
  H      6.08921901     -0.84153924      4.47800250
  H      5.25821090      0.44851066      3.53735770
  H      6.81629849      1.45108712      5.18454414
  H      6.02614038      0.57570793      6.49545077
  H      5.15176662      1.85329517      5.62842790
  H      0.30861352     -0.66110860      6.64753372
  H      0.03215412     -1.17655959      4.97298777
  H      0.44676174      0.51911548      5.32296624
  N      1.44590587      6.25840379      2.10590825
  C      1.58514711      5.54841833      3.22715797
  N      1.29642907      6.33074222      4.27283405
  C      0.97415507      7.57112446      3.79000911
  C      1.06665389      7.52189322      2.43393051
  C      1.61528063      5.77750660      0.75533408
  C      0.52542503      4.77273039      0.40158822
  C      1.33228825      5.92485981      5.64962024
  H      1.82992081      4.50660648      3.30881225
  H      0.70741500      8.38036165      4.43806272
  H      0.91654309      8.25335240      1.64730274
  H      1.55213376      6.65853208      0.10179354
  H      2.60110096      5.31148989      0.66822712
  H      0.68823698      4.40203306     -0.60617764
  H     -0.44729759      5.25650803      0.43584214
  H      0.52907189      3.93166986      1.09109257
  H      0.50777214      6.38595362      6.19203130
  H      2.27467596      6.21810431      6.11884377
  H      1.24072256      4.83725276      5.69270054
  N      0.64486546      2.75363307      8.92702246
  C     -0.31610012      2.96492831      7.92730178
  N     -0.84149639      4.24148958      8.17108970
  C     -0.30029167      4.72014315      9.33373843
  C      0.62335242      3.83817791      9.77438088
  C      1.70936386      1.79875338      8.82263793
  C      2.80883784      2.24983684      7.85859469
  C     -1.83770849      4.86715652      7.36208531
  H     -0.09962154      2.68349535      6.90889133
  H     -0.60864493      5.65617594      9.75626086
  H      1.25237548      3.88537826     10.63979103
  H      2.12956593      1.64276802      9.82376432
  H      1.28155471      0.85388136      8.47249770
  H      3.56280631      1.46977928      7.76022923
  H      3.28676085      3.15416335      8.22841785
  H      2.38320874      2.45282936      6.87915986
  H     -1.73611998      4.50637716      6.33826419
  H     -1.70584261      5.95240657      7.37382889
  H     -2.85385769      4.63886252      7.71454880
 Cl      1.06308052      2.71068141      4.66411301
 Cl      3.30852924     21.50739001     29.62833470
 Cl      1.03917708      8.80485668     -0.44808597
 Cl      6.88106275     -2.91880388      4.95820090
 Cl      0.82740364     20.98910821     29.25604864
