62
Energy =    -96.26442842 au
  N      1.78957064      4.52541254      7.90300335
  C      0.82467990      4.03316032      8.68081516
  N      0.80657452      2.70471404      8.55752715
  C      1.84365363      2.33294704      7.75200525
  C      2.45780870      3.47013328      7.34179677
  C      2.16428114      5.91060818      7.78814911
  C      3.33446849      6.22306815      8.71388107
  C     -0.03096612      1.80028977      9.28874416
  H      0.07450417      4.61846754      9.16912592
  H      2.00920176      1.29711714      7.52308163
  H      3.29846705      3.62092348      6.69776056
  H      2.40745868      6.11209614      6.74105277
  H      1.29708002      6.51335680      8.06607866
  H      3.51599630      7.29381406      8.74559956
  H      4.23823687      5.71919341      8.37772905
  H      3.08930991      5.86783921      9.71326313
  H     -1.07490508      2.10402904      9.20776437
  H      0.26302192      1.81879145     10.34009979
  H      0.10167777      0.79941149      8.87448470
  N      0.94947683      4.62745782      1.12745566
  C      1.45534986      4.19169314     -0.02605168
  N      2.59723422      4.84180881     -0.27344329
  C      2.85120652      5.66198358      0.79235134
  C      1.81765675      5.53526303      1.66096590
  C     -0.27824105      4.21401798      1.76663105
  C     -0.54986037      2.72995907      1.55841449
  C      3.50283996      4.49685352     -1.32940512
  H      0.99247587      3.49703114     -0.69308585
  H      3.73570609      6.26160520      0.84780615
  H      1.62934775      5.96570589      2.62922468
  H     -0.16464473      4.46139549      2.82743501
  H     -1.10441662      4.81519607      1.36737820
  H     -1.23233047      2.36415000      2.31935285
  H      0.38141439      2.17221726      1.61705021
  H     -0.99319007      2.54161612      0.58275913
  H      3.76114853      3.43967678     -1.20720805
  H      4.39891573      5.10851974     -1.25902110
  H      3.03299832      4.64133531     -2.30332062
  N      0.36971789      1.40201425      4.77339237
  C      1.10341442      2.48950583      4.56989430
  N      2.24899348      2.13670666      3.99610929
  C      2.25227355      0.78632972      3.83676013
  C      1.07104430      0.32421190      4.32860767
  C     -0.90889107      1.30554948      5.43183259
  C     -1.49174462      2.66090437      5.78488325
  C      3.27716073      3.04219264      3.57450285
  H      0.84124006      3.51546610      4.78752673
  H      3.06557822      0.26856752      3.37337673
  H      0.70293659     -0.67349591      4.43862956
  H     -1.58831783      0.75744552      4.77053950
  H     -0.73659449      0.68524136      6.32641852
  H     -2.45142643      2.52024561      6.27501521
  H     -1.64202083      3.27221344      4.89709891
  H     -0.83707128      3.20357616      6.45976681
  H      3.41769684      2.93263011      2.49488721
  H      4.21481459      2.81236649      4.08125028
  H      2.96294254      4.05718270      3.80757570
 Cl      1.72713257      4.24989258     11.06139078
 Cl      0.69116594      5.67459432      4.71495060
 Cl      2.71715357      1.89758293      0.47597036
 Cl     20.52629568     24.66984680    -19.81547752
 Cl      0.72694774     -0.81013568      7.18569189
