#B3LYP/6-31+G(d) OPT FREQ

62, Energy =    -96.26390509 au

0 1
  N      9.34348470      5.39050906      5.28160306
  C      9.42065930      6.59613810      5.83257667
  N      8.22108799      6.92841044      6.29801916
  C      7.35821330      5.90500086      6.03613046
  C      8.06437312      4.93260359      5.39712995
  C     10.45901434      4.68607999      4.69837295
  C     10.74379411      3.40104634      5.46607629
  C      7.86001478      8.14641226      6.96517085
  H     10.33772019      7.18517459      5.84627178
  H      6.33778091      5.95917444      6.36065327
  H      7.77499330      3.95168908      5.05716799
  H     10.21441133      4.44537285      3.65993188
  H     11.31359833      5.36895333      4.72525855
  H     11.60505378      2.90132420      5.03131915
  H      9.88744979      2.73076768      5.41491254
  H     10.96003097      3.62474700      6.50822558
  H      6.99351197      7.94493049      7.60144972
  H      7.59372516      8.91383204      6.23626193
  H      8.69682353      8.50220463      7.56203562
  N      5.12014935      3.10227880      7.01446242
  C      4.25191951      4.09225106      7.18972182
  N      3.16722000      3.84324325      6.46276064
  C      3.34597473      2.66276746      5.80743694
  C      4.57514950      2.19496363      6.15857998
  C      6.38843446      2.95805116      7.68143553
  C      6.23916848      2.08389323      8.92247261
  C      2.00422606      4.67613696      6.35386162
  H      4.43385865      4.99093290      7.77380807
  H      2.56553981      2.25087449      5.19777138
  H      5.13167805      1.34131527      5.82928340
  H      7.08073949      2.49754020      6.96534249
  H      6.73888017      3.95189102      7.96138466
  H      7.20631236      1.97141999      9.40366032
  H      5.87074341      1.09744984      8.65018964
  H      5.54641538      2.53833985      9.62908320
  H      1.15480137      4.04559417      6.07207544
  H      2.15677802      5.43335301      5.58294162
  H      1.82045857      5.17308308      7.30427249
  N     -1.11278355      5.21882224      3.87971770
  C     -1.13226033      4.06912633      3.21161828
  N      0.00793366      3.93333138      2.54461472
  C      0.76132534      5.04875862      2.75671386
  C      0.06123433      5.85517753      3.59318377
  C     -2.15019050      5.67639276      4.76260775
  C     -1.87236526      5.21688188      6.19169055
  C      0.34157417      2.78989605      1.75153954
  H     -1.88899951      3.31857578      3.28968591
  H      1.72449157      5.18014646      2.30764115
  H      0.29834251      6.81785891      3.99722124
  H     -2.20366754      6.76709537      4.70187841
  H     -3.09079028      5.26070287      4.39525871
  H     -2.75128505      5.35753871      6.81492264
  H     -1.04217979      5.77457339      6.61887675
  H     -1.60242458      4.16298078      6.18295292
  H      0.38032302      1.91345571      2.40215614
  H      1.30924396      2.94019326      1.27779679
  H     -0.43006283      2.64925911      0.99257759
 Cl     -2.65422030      4.81832637      1.25281215
 Cl      7.66214195      1.63737901      4.93966838
 Cl      5.08778063      6.89664237      8.45539158
 Cl     -0.04923331      2.31009947      5.20748570
 Cl     12.31354707      7.69371980      5.31601321

