#B3LYP/6-31+G(d) OPT FREQ

62, Energy =    -96.26904459 au

0 1
  N      2.49706309      8.70577782      4.12088136
  C      2.72304304      8.62938524      5.42521746
  N      1.82524042      7.82032051      5.97258650
  C      1.01358111      7.34672359      4.99173767
  C      1.43591065      7.90301052      3.82592764
  C      3.31372979      9.43335512      3.18210835
  C      4.12002887      8.45728342      2.32903486
  C      1.73809333      7.43125045      7.35138743
  H      3.47744577      9.20692963      5.93105990
  H      0.22461669      6.65320289      5.23055464
  H      1.07669625      7.77497756      2.82612795
  H      2.66470905     10.05359327      2.55637462
  H      3.95987915     10.08962555      3.77194882
  H      4.98977710      8.94683983      1.90153893
  H      3.51503199      8.05222675      1.52041257
  H      4.44607838      7.62673493      2.94960654
  H      2.62769963      6.86333286      7.62766074
  H      0.84996367      6.80452589      7.46762497
  H      1.66777265      8.31156707      7.98988661
  N      1.38140759      2.80548447      7.57018632
  C      1.49797081      3.68266926      6.58049278
  N      1.07163741      3.12715355      5.45480718
  C      0.64214922      1.86446779      5.74396278
  C      0.83670889      1.66212820      7.07442794
  C      1.66761026      3.02158110      8.96597051
  C      0.45486456      3.64661904      9.65024618
  C      0.98830902      3.80570738      4.19533008
  H      1.91949474      4.66523990      6.63828213
  H      0.23474283      1.21828310      4.99377138
  H      0.70141258      0.80585357      7.71691968
  H      1.88316551      2.04033367      9.40529194
  H      2.53837140      3.67703190      9.04343178
  H      0.72687199      4.01239308     10.63655916
  H     -0.32699048      2.89974260      9.75754356
  H      0.06857135      4.47028609      9.05350852
  H      0.08857148      4.42398112      4.18645386
  H      0.95225930      3.08077929      3.38450969
  H      1.85920896      4.45443028      4.08381723
  N      7.40253278      9.43935308      4.10853358
  C      7.74266218      8.28564227      3.54549308
  N      7.03513660      7.31209840      4.10968982
  C      6.22360544      7.86267826      5.05792881
  C      6.45264542      9.20268874      5.05705768
  C      7.92806669     10.72661694      3.72552107
  C      6.82104054     11.61081752      3.16313898
  C      7.06543821      5.91588551      3.78051583
  H      8.50300105      8.21224057      2.77024087
  H      5.52046116      7.26234135      5.59980671
  H      5.96957183      9.99496858      5.60216722
  H      8.36734069     11.20078074      4.60780844
  H      8.70981578     10.54188253      2.98128953
  H      7.22618619     12.58744633      2.91347352
  H      6.02293901     11.73804004      3.89288735
  H      6.40795749     11.16721619      2.26004212
  H      6.06081369      5.50865942      3.92568322
  H      7.75839406      5.38302274      4.43435094
  H      7.38136737      5.78976100      2.74729824
 Cl      3.81866037      5.65818048      4.75870858
 Cl      4.23348291     11.47742495      5.75953646
 Cl      1.46542726     -0.32674091      9.56668690
 Cl     -0.89975460      5.31983121      6.69451241
 Cl     10.06954064      9.00544996      1.57182394

