#B3LYP/6-31+G(d) OPT FREQ

62, Energy =    -96.29399112 au

0 1
  N      6.49898737      6.35781156      4.45517988
  C      6.34014281      6.03904886      3.17635798
  N      5.70814277      4.87286854      3.09984372
  C      5.44509156      4.44252118      4.36578021
  C      5.94132691      5.37972229      5.21828773
  C      7.17532079      7.53533421      4.93543747
  C      6.18849452      8.67509226      5.16320585
  C      5.39833714      4.15407604      1.89827127
  H      6.80909086      6.57854329      2.36292969
  H      4.98727777      3.49247272      4.54811417
  H      6.00414244      5.39812166      6.28763475
  H      7.67257123      7.26726165      5.87238040
  H      7.91161411      7.81550191      4.17915274
  H      6.72119051      9.54645726      5.53235731
  H      5.43902512      8.39029607      5.89894172
  H      5.69004508      8.94048463      4.23270892
  H      4.34094316      4.26012940      1.64830707
  H      5.61644234      3.09384470      2.06815041
  H      6.00472679      4.54144607      1.08286872
  N     10.54348626      2.57967561      6.48585744
  C     10.61731437      1.68603963      5.50288114
  N      9.41635654      1.15214264      5.30673156
  C      8.55183021      1.71879714      6.19197599
  C      9.25935694      2.61505704      6.93468555
  C     11.67587071      3.37709767      6.90381072
  C     11.34959341      4.33441229      8.03271916
  C      9.07830004      0.15128561      4.33781261
  H     11.49108866      1.53881173      4.89450457
  H      7.51016912      1.47467235      6.19524746
  H      8.91745698      3.30394301      7.68082218
  H     12.47486464      2.69022383      7.20543594
  H     12.02853462      3.90445773      6.00988623
  H     12.20239667      4.98431871      8.20835763
  H     11.13418417      3.79307248      8.95246152
  H     10.49087687      4.95525322      7.78929256
  H      8.12380902      0.41978357      3.86711419
  H      8.96643363     -0.82230746      4.81910271
  H      9.86349607      0.09587681      3.58821652
  N      9.39676353      4.06580515      2.41796512
  C     10.21948919      5.04358947      2.77366796
  N      9.98367555      5.37327028      4.03340182
  C      8.98356647      4.57871966      4.50419152
  C      8.61596775      3.75062392      3.49214343
  C      9.35808550      3.43096224      1.12692298
  C     10.24589038      2.18972601      1.10762895
  C     10.64695063      6.40174813      4.77875665
  H     10.96196967      5.48923344      2.14499806
  H      8.61403368      4.69229311      5.50597132
  H      7.87010940      2.97778783      3.44919127
  H      8.32169322      3.15914400      0.91285863
  H      9.69520633      4.16349764      0.39038902
  H     10.45704470      1.88950769      0.08496948
  H      9.74728736      1.37049384      1.61791561
  H     11.18186644      2.40216060      1.61974173
  H     11.70517130      6.15680000      4.88069479
  H     10.18267763      6.47148841      5.76079610
  H     10.54830019      7.35103282      4.25101173
 Cl      8.20957183      5.75057132      7.61920580
 Cl    -63.27254741     46.25803522     54.17531788
 Cl      6.15855703      1.30274903      3.35769014
 Cl     12.43122598      3.30841457      3.67735750
 Cl      8.74902643      7.20702387      1.65657247

