#B3LYP/6-31+G(d) OPT FREQ

62, Energy =    -96.28243196 au

0 1
  N      4.76550338      3.63886483      4.03533082
  C      4.48891337      4.76406963      4.68583177
  N      4.56028099      5.78476750      3.83907639
  C      4.89924218      5.29825002      2.61057880
  C      5.02651263      3.94982574      2.73341960
  C      4.86768971      2.32346423      4.61426932
  C      3.49121714      1.71335915      4.84911654
  C      4.40396240      7.17562573      4.15424241
  H      4.24359342      4.83719074      5.72524730
  H      5.07693772      5.97702232      1.79744591
  H      5.33322075      3.18144674      2.04746491
  H      5.44576053      1.71220888      3.91020869
  H      5.41671283      2.41499754      5.55496407
  H      3.60286918      0.71945394      5.27258867
  H      2.95495414      1.62755171      3.90694211
  H      2.90317107      2.32178269      5.53538413
  H      3.34731168      7.44305079      4.21365854
  H      4.88381471      7.75045007      3.35392355
  H      4.88752058      7.38470945      5.10695801
  N     10.70165643      4.21317189      6.34848328
  C      9.84214222      3.94941284      5.36030913
  N      9.97002312      2.67184320      5.00603103
  C     11.01272202      2.13936181      5.71144162
  C     11.46748348      3.10053777      6.55338263
  C     10.86417731      5.51273355      6.94500772
  C      9.75446711      5.80164892      7.94900008
  C      9.27175213      2.04187977      3.92422854
  H      9.01934983      4.58237357      5.09196237
  H     11.34279581      1.13175246      5.56337454
  H     12.26439488      3.08088658      7.26824722
  H     11.84578516      5.54732293      7.42542131
  H     10.84412069      6.23956704      6.12800291
  H      9.84091194      6.81976570      8.31832754
  H      9.81198469      5.11561851      8.79204081
  H      8.78354176      5.68309252      7.47343407
  H      8.20828181      2.27219298      3.95794891
  H      9.39548067      0.96311585      3.97453308
  H      9.66810003      2.40410239      2.97463217
  N      8.47666126      5.28266642      1.58207874
  C      8.04764228      5.62755006      2.78880486
  N      8.42636927      6.86709762      3.05519657
  C      9.11978143      7.33596632      1.98924335
  C      9.15574398      6.34110632      1.06495616
  C      8.24109055      4.03627460      0.89807687
  C      7.33047046      4.24351487     -0.30784667
  C      8.08323039      7.62017747      4.22385357
  H      7.48570755      5.00419380      3.45623122
  H      9.52356296      8.32628815      1.96006582
  H      9.61354667      6.31099555      0.09833884
  H      9.20478937      3.62839383      0.57985546
  H      7.77327829      3.32674750      1.58523945
  H      7.00061495      3.27411524     -0.66878318
  H      7.84197024      4.76896427     -1.11142845
  H      6.45821733      4.82181500     -0.01560264
  H      7.34744935      8.37476299      3.93929991
  H      8.97203251      8.10388866      4.62774980
  H      7.65436329      6.94825387      4.96726587
 Cl      6.86105532      4.97212498      6.07609709
 Cl    -49.44947875     39.09811457     42.84866116
 Cl      6.69520569      1.21925870      2.05467763
 Cl     11.07851736      5.12209613      3.51048374
 Cl      6.08584824      8.14808563      1.46990927

