62
Energy =    -96.25101386 au
  N      2.49298851      5.55472402      1.97132647
  C      3.52774763      5.65883354      1.13922189
  N      3.40572134      6.78454461      0.44555532
  C      2.26966435      7.41871295      0.84048533
  C      1.69750532      6.64998812      1.80661658
  C      2.30779349      4.49272054      2.93791143
  C      3.23022705      4.67561338      4.13423273
  C      4.31512999      7.27546186     -0.55075374
  H      4.30725956      4.92151772      0.96379815
  H      1.98749607      8.35591560      0.39918144
  H      0.79007202      6.80386001      2.35896365
  H      1.26584930      4.50382237      3.25882629
  H      2.52149783      3.54027660      2.45011180
  H      3.11923830      3.82503971      4.80750955
  H      2.98205086      5.58623339      4.67368316
  H      4.26482805      4.73029345      3.80786754
  H      3.95489206      8.24571811     -0.89474623
  H      4.37459697      6.57310530     -1.38214306
  H      5.31288628      7.38101857     -0.12514444
  N      7.53694789      3.61220086      3.52638861
  C      6.60802241      2.97950215      2.81384528
  N      5.83789051      2.28126131      3.63901488
  C      6.28487854      2.46989849      4.91209984
  C      7.35521983      3.31034120      4.84029098
  C      8.53766121      4.50849025      3.00023922
  C      7.87571466      5.70681121      2.32915652
  C      4.74014045      1.44499698      3.25321856
  H      6.45038217      3.07373380      1.74701726
  H      5.76923344      2.03486047      5.74413334
  H      8.02882885      3.70470340      5.58144284
  H      9.17301319      4.80917069      3.84440452
  H      9.14529254      3.96647720      2.26933048
  H      8.64029302      6.39232939      1.97543319
  H      7.24136028      6.23204382      3.03945178
  H      7.27103729      5.38380239      1.48234885
  H      4.36582230      1.77067956      2.28588821
  H      3.96034752      1.50519510      4.02399673
  H      5.06638002      0.40689408      3.17666381
  N      0.05806703     10.26167582      1.94878253
  C     -0.65388670     10.06177815      3.05888091
  N      0.18062952     10.03578147      4.10628507
  C      1.46391511     10.12401677      3.62375670
  C      1.38371767     10.27688794      2.28069314
  C     -0.46497903     10.30351289      0.60621136
  C     -1.31911481     11.54460305      0.37605135
  C     -0.22107097      9.65913549      5.43069987
  H     -1.71683782     10.14735352      3.13392245
  H      2.31468510     10.06304984      4.26786342
  H      2.13457054     10.39482485      1.51889593
  H      0.39344551     10.30297365     -0.07350661
  H     -1.05612710      9.39706976      0.45076208
  H     -1.65796826     11.56020565     -0.65627978
  H     -0.73340455     12.44311849      0.55876567
  H     -2.19081423     11.55210912      1.02855193
  H     -0.90672328     10.39836389      5.84923820
  H      0.65352848      9.56684742      6.06929935
  H     -0.73284287      8.69490209      5.36306728
 Cl      2.59958429     10.36251832     -0.78236003
 Cl     10.19050264      4.70921879      5.88450181
 Cl      5.66103558      3.70990446     -0.17863383
 Cl      2.93140325      1.74364366      5.94063401
 Cl     -1.37052120      7.67167848      3.02632937
