#B3LYP/6-31+G(d) OPT FREQ

62, Energy =    -96.25700887 au

0 1
  N      7.97859405      5.95807720      9.51207872
  C      7.25706432      4.84395212      9.50535300
  N      6.89882859      4.56450367      8.25931110
  C      7.43887991      5.50422179      7.43588886
  C      8.11642974      6.37845222      8.22183244
  C      8.55930747      6.58122460     10.66907300
  C     10.03503993      6.21414280     10.78145129
  C      6.17465596      3.41222477      7.81022950
  H      6.95141870      4.30467139     10.37709565
  H      7.23921366      5.49005867      6.38259976
  H      8.66745477      7.26080085      7.97027481
  H      8.41075035      7.66199106     10.58664525
  H      8.01584184      6.22298846     11.54483529
  H     10.43845604      6.54611397     11.73462973
  H     10.60856681      6.66644122      9.97523377
  H     10.12493166      5.13110596     10.70579832
  H      6.86515186      2.57290654      7.70609699
  H      5.72155305      3.65019927      6.84612511
  H      5.40638331      3.14632567      8.53389813
  N      6.66535817      9.10995701      5.44473722
  C      6.47438383      8.92187241      6.74584899
  N      6.95992146      9.96929080      7.40895646
  C      7.47082968     10.84769258      6.49578576
  C      7.28734755     10.30888957      5.26149738
  C      6.28382038      8.22872957      4.36523579
  C      5.33078630      8.93596561      3.40959701
  C      6.95082842     10.14523799      8.83355039
  H      6.00591955      8.07917828      7.22569016
  H      7.91914644     11.77612325      6.78277046
  H      7.51075686     10.71976442      4.27719080
  H      7.18954677      7.95028354      3.82033362
  H      5.82957708      7.32540149      4.78186821
  H      5.03571462      8.24201935      2.62862227
  H      5.81575879      9.79672011      2.95204987
  H      4.43538804      9.26266942      3.93395453
  H      6.45485239     11.08094572      9.09173012
  H      7.97251583     10.17128730      9.21563954
  H      6.40711366      9.30383347      9.28097068
  N      2.72655792      6.60615696      8.10300745
  C      2.01672082      7.56735551      8.67866715
  N      2.21830460      8.70345817      8.02566471
  C      3.09361821      8.45929374      7.00888408
  C      3.41747698      7.13958864      7.05996001
  C      2.84799350      5.24566212      8.55857475
  C      2.53277368      4.25935956      7.44237266
  C      1.61473253      9.95668227      8.37541783
  H      1.31042438      7.47813941      9.49031634
  H      3.42280581      9.23030518      6.34299603
  H      4.06589355      6.54153655      6.43958355
  H      3.87616128      5.11263992      8.90921793
  H      2.16525841      5.11937038      9.40260863
  H      2.61437686      3.24221984      7.81638868
  H      3.22951542      4.38213211      6.61656547
  H      1.52057669      4.41644513      7.07599739
  H      1.38282363     10.52267431      7.47441537
  H      2.29089363     10.53713083      9.00525778
  H      0.69734699      9.73657461      8.93580035
 Cl      5.09111080      5.08333274      5.03249141
 Cl     -0.77704950      8.36601383      9.97270582
 Cl      7.56735053     11.66265927      2.40359617
 Cl      9.18988099      2.99864687      9.90266383
 Cl      5.31723722      7.45044388      9.54155517

