62
Energy =    -96.28645707 au
  N      6.11999762      9.62476517      2.44545865
  C      6.75752116      8.72810950      3.18997129
  N      7.12380695      7.70737400      2.42421043
  C      6.70981854      7.95795927      1.15060294
  C      6.07800111      9.16255798      1.16271167
  C      5.57812201     10.88147683      2.89754376
  C      6.68895938     11.89546295      3.14556450
  C      7.73356147      6.48896968      2.87267389
  H      6.94540838      8.81058593      4.23998292
  H      6.87701458      7.23316852      0.37689262
  H      5.56920218      9.72794665      0.40483274
  H      4.90684427     11.24359257      2.11114993
  H      5.00938633     10.69883147      3.81250222
  H      6.25903337     12.82873641      3.49616109
  H      7.22666159     12.09207874      2.22098210
  H      7.39340600     11.53205138      3.89191194
  H      8.79045850      6.64163775      3.09719641
  H      7.63237952      5.74462207      2.07637441
  H      7.21722608      6.14971229      3.77008594
  N      1.87317288      8.51918772      1.06340722
  C      1.57332307      7.35439940      1.63360773
  N      1.80864516      7.44415669      2.93642808
  C      2.26783640      8.69639916      3.20845994
  C      2.30491962      9.37516951      2.03088944
  C      1.74202697      8.86776066     -0.32821644
  C      0.29547726      9.21308266     -0.66795835
  C      1.68470022      6.36579285      3.87344577
  H      1.25937504      6.43976900      1.14901047
  H      2.56477306      8.98447370      4.19488572
  H      2.64648350     10.35991048      1.76992057
  H      2.39520770      9.73236112     -0.50145602
  H      2.07005333      8.02192980     -0.93462612
  H      0.22663643      9.50325474     -1.71263704
  H     -0.04483192     10.04543847     -0.05529569
  H     -0.35330282      8.35657925     -0.49614297
  H      0.83663484      6.53181218      4.53944342
  H      2.60027170      6.31974541      4.46518840
  H      1.53945703      5.44231377      3.31347807
  N      4.12873224      4.95339148     -0.19928990
  C      4.25805638      4.09805924      0.80229271
  N      4.40980725      4.76463398      1.93622510
  C      4.37194720      6.09078510      1.65552991
  C      4.19856873      6.21064943      0.31284485
  C      3.94580417      4.61199408     -1.58429495
  C      2.54422926      4.99401361     -2.05081667
  C      4.59322092      4.20536230      3.24365433
  H      4.25270928      3.03144848      0.70760510
  H      4.47886659      6.82159376      2.43367337
  H      4.16263957      7.08419843     -0.30310770
  H      4.71953265      5.11888167     -2.16816286
  H      4.09292499      3.53449196     -1.67804769
  H      2.31498280      4.50572231     -2.99342531
  H      2.45569505      6.06875731     -2.18682446
  H      1.82340290      4.67532864     -1.30027107
  H      3.72730647      3.59844139      3.51088737
  H      4.70253002      5.02493544      3.95380163
  H      5.49092889      3.58652788      3.25948421
 Cl      7.11275887      4.74434349      0.10774436
 Cl      4.80050115      7.41976846      4.74766185
 Cl     35.57709778    -17.93403061     13.58234541
 Cl      3.84475804     11.47182290      0.04918457
 Cl      1.30138496      4.22917125      1.15257868
