62
Energy =    -96.16288743 au
  N      4.12770876      4.48576696      7.91873551
  C      3.96738194      4.97932667      9.16887110
  N      5.18345012      5.29667459      9.66129488
  C      6.12208965      4.94867691      8.73674851
  C      5.47387996      4.45067783      7.65546088
  C      3.05999956      4.05206364      7.06214761
  C      2.97291498      4.90419334      5.79876435
  C      5.47543014      5.77535484     10.97856580
  H      3.00521633      5.13165641      9.61801030
  H      7.16688370      5.02403087      8.96073926
  H      5.86122336      4.08127282      6.72874186
  H      3.21832390      3.00143140      6.79214062
  H      2.13465307      4.14110094      7.63894889
  H      2.13624821      4.57213982      5.19027931
  H      3.88477064      4.82946220      5.20900443
  H      2.81641416      5.94485737      6.06881805
  H      6.38703785      5.27211997     11.32329050
  H      4.64797976      5.54481343     11.64492604
  H      5.64856168      6.85447111     10.97177301
  N      0.72289358      7.75206426      8.24844868
  C      0.61251578      7.66156583      9.57175753
  N      1.82430000      7.75216670     10.11641082
  C      2.72153579      7.99951402      9.11850890
  C      2.03393028      8.00178990      7.95051600
  C     -0.36774665      7.70355187      7.31229757
  C     -0.85895680      9.11060345      6.98785900
  C      2.06477970      7.74834114     11.52754422
  H     -0.27550651      7.38135259     10.09707790
  H      3.76364273      8.14880158      9.31173996
  H      2.36791158      8.16273699      6.94627987
  H     -0.02723531      7.18154563      6.41256997
  H     -1.16644644      7.11914875      7.77251932
  H     -1.79574429      9.06914532      6.43928737
  H     -0.12295708      9.64803921      6.39401824
  H     -1.00806708      9.65166072      7.92040544
  H      1.49459006      8.56811700     11.97229282
  H      3.12598052      7.88446608     11.72181345
  H      1.72627135      6.80241929     11.95290403
  N      5.45190268      1.22533445      9.43899296
  C      4.21302690      0.80887544      8.99747437
  N      3.27865171      1.64796136      9.58162714
  C      3.94888928      2.47233235     10.45611601
  C      5.27671060      2.20758446     10.36490063
  C      6.70748348      0.61904770      9.09109909
  C      7.65888306      1.61851360      8.44177125
  C      1.85936158      1.55272967      9.44735352
  H      4.06481045      0.37691387      8.02447368
  H      3.41274399      3.14500736     11.09020319
  H      6.11719029      2.66597027     10.85496964
  H      7.17795095      0.22142325      9.99768299
  H      6.49618976     -0.21506186      8.41464369
  H      8.58814991      1.12161333      8.17623783
  H      7.88090027      2.42225893      9.14138490
  H      7.21572278      2.04316092      7.54447914
  H      1.61143454      1.12189443      8.47741667
  H      1.42084911      2.55137687      9.51804976
  H      1.42396595      0.92187530     10.23008394
 Cl      8.15748813      3.88265716     11.06425684
 Cl     13.93385911     -1.20649499    -19.57623525
 Cl     15.07012877      1.20341777    -19.77188873
 Cl     -0.14955869      9.99543449     10.26072004
 Cl      0.73379289      4.79170827      9.47548589
