62
Energy =    -96.25960986 au
  N      9.98997293      1.32816618      5.51943902
  C      9.77560157      0.32493566      4.67248475
  N     10.30117667      0.63677458      3.49250900
  C     10.89406224      1.86003464      3.59560221
  C     10.69859260      2.29443655      4.86765905
  C      9.63419087      1.36261096      6.91431902
  C     10.78259717      0.81235544      7.75339943
  C     10.32407063     -0.18489037      2.31884333
  H      9.24762141     -0.57705783      4.89976357
  H     11.35404629      2.31615849      2.74128518
  H     10.94285339      3.22003843      5.34639896
  H      9.40356130      2.40252248      7.16674516
  H      8.74204662      0.74726132      7.05343531
  H     10.47102040      0.69479468      8.78797079
  H     11.63514897      1.48604310      7.71564473
  H     11.08416477     -0.15464519      7.35278545
  H      9.36308907     -0.68239245      2.19253060
  H     11.10034040     -0.94444803      2.42603927
  H     10.52998414      0.45749171      1.45967369
  N      8.39147413      4.54912356      3.12394392
  C      8.08645243      5.53907937      3.95587797
  N      9.03827878      6.45833510      3.90881588
  C      9.99857861      6.02630373      3.04238322
  C      9.59743795      4.82784192      2.54646447
  C      7.61860618      3.35089629      2.91983760
  C      7.46589524      3.03676484      1.43802207
  C      9.05115798      7.64013237      4.71720532
  H      7.18557776      5.62832980      4.52666071
  H     10.88360166      6.59510864      2.84457435
  H     10.05940857      4.16917985      1.83075219
  H      8.12128669      2.52293688      3.42872586
  H      6.64701064      3.50809902      3.39624238
  H      6.81701793      2.17366378      1.30935969
  H      8.43399946      2.80833075      0.99385882
  H      7.03521244      3.88844158      0.91590510
  H      8.14525454      8.21546519      4.51744378
  H      9.93090354      8.23627784      4.48480200
  H      9.06489223      7.33971531      5.76717347
  N      3.08463804      6.72546667      1.40440027
  C      3.14906103      7.77338901      2.21831970
  N      1.98343966      8.41067641      2.19028870
  C      1.14508451      7.75390898      1.34358266
  C      1.83668281      6.69162286      0.85016772
  C      4.14418385      5.76557565      1.20870303
  C      3.83573437      4.46831150      1.94791252
  C      1.62161044      9.59742978      2.91389675
  H      4.05706351      8.04187763      2.74841181
  H      0.13896216      8.12270451      1.19118825
  H      1.54228931      5.93494325      0.15279996
  H      4.25449921      5.57790433      0.13748494
  H      5.06205145      6.21867560      1.60232088
  H      4.61197785      3.73847775      1.74109549
  H      2.87661098      4.05822071      1.63429316
  H      3.80611926      4.64962069      3.01927433
  H      0.58115538      9.83486766      2.65886256
  H      2.27270992     10.42383430      2.63158194
  H      1.71231980      9.42743988      3.98612734
 Cl     -1.44878415      9.59954586      1.65639889
 Cl      8.90556050      4.63658401      6.39790490
 Cl      6.21248850      7.77743273      2.86619489
 Cl     10.73126335      2.54900490      0.31061702
 Cl     11.37116867     -1.79625090      5.42307224
