#B3LYP/6-31+G(d) OPT FREQ

62, Energy =    -96.28237205 au

0 1
  N      3.71493676      3.29207751      3.45121480
  C      3.93133658      2.88838117      4.69894280
  N      5.10902141      2.27716441      4.76233728
  C      5.69049108      2.34794782      3.53159218
  C      4.81665066      2.98200219      2.70509446
  C      2.56360179      4.01642306      2.97274706
  C      2.89525576      5.49486082      2.82152997
  C      5.71991013      1.74485049      5.94528356
  H      3.24612755      2.99800410      5.51425362
  H      6.67523252      1.95132268      3.36713238
  H      4.91938289      3.31566223      1.68764536
  H      2.27323930      3.59416836      2.00646203
  H      1.75097832      3.87066351      3.69039159
  H      2.00809493      6.05193958      2.53414973
  H      3.66013643      5.61322405      2.05680300
  H      3.27325694      5.87703668      3.76556489
  H      5.77775408      2.53580666      6.69386660
  H      6.72321695      1.40234779      5.68874747
  H      5.13485837      0.91264629      6.34008664
  N      9.34892768      4.82988388      5.34806953
  C     10.26270385      4.02864696      4.80740393
  N     11.23604578      4.76859908      4.28597852
  C     10.94793730      6.07933950      4.50966050
  C      9.76175262      6.11737965      5.17806693
  C      8.16657504      4.36446387      6.02630030
  C      8.32993017      4.46104381      7.53910849
  C     12.39387952      4.29562231      3.58550266
  H     10.14110921      2.95705312      4.73690155
  H     11.56647652      6.85075199      4.09099362
  H      9.18739340      6.94862172      5.53038216
  H      7.29542709      4.94829191      5.71691227
  H      8.02508476      3.32643793      5.72187989
  H      7.38638836      4.20452314      8.01100174
  H      8.59115034      5.47567496      7.83395792
  H      9.10112704      3.77924481      7.89242083
  H     13.25223089      4.24895700      4.25750981
  H     12.61371306      5.01935367      2.78624702
  H     12.19916069      3.30555262      3.18053857
  N      8.60348118      5.12409019      2.05668114
  C      7.40647664      5.33562338      2.60019586
  N      7.24454827      6.63611585      2.80593934
  C      8.35291124      7.27810189      2.33678419
  C      9.20743365      6.33204363      1.86646175
  C      9.11907854      3.84420394      1.63277021
  C      8.56806719      3.48375951      0.25641367
  C      6.04956329      7.24327848      3.31301502
  H      6.70437771      4.57796102      2.88189837
  H      8.45731332      8.34244835      2.36793195
  H     10.20907702      6.43982480      1.48581513
  H     10.20755482      3.92194480      1.59683542
  H      8.83147530      3.08896950      2.36961984
  H      8.77621948      2.44201372      0.03193992
  H      9.02019828      4.11060265     -0.50851416
  H      7.49301575      3.64623588      0.23836623
  H      5.29885508      7.25212798      2.52093188
  H      6.26139101      8.26093621      3.63395504
  H      5.66129489      6.65660855      4.14950544
 Cl      4.90248675      5.17784938      5.86071758
 Cl    -43.07974848     36.19056933     37.98328223
 Cl      8.75529732      1.29762430      4.35711176
 Cl     12.44686525      6.97497704      1.81373744
 Cl      5.54010169      5.27247165      0.52388233

