62
Energy =    -96.26304724 au
  N      5.11593940      6.50856503      5.23721075
  C      4.37478125      6.63924398      6.32996411
  N      4.18539046      7.92730516      6.57580472
  C      4.82954070      8.65085785      5.61902157
  C      5.41305197      7.75917840      4.77613006
  C      5.52820623      5.25391455      4.66566818
  C      6.85398144      4.80225605      5.26916535
  C      3.46365428      8.49287001      7.67928808
  H      3.98917482      5.82731898      6.91083958
  H      4.78281945      9.72564625      5.62106576
  H      6.00794967      7.91755500      3.90009814
  H      4.73423443      4.53392065      4.87404435
  H      5.60846062      5.37724373      3.58279739
  H      7.05884690      3.76860186      5.00473833
  H      6.80300950      4.89704010      6.35206486
  H      7.66991570      5.42685754      4.91111145
  H      2.48224578      8.02646145      7.75738525
  H      3.35977672      9.56632016      7.50535591
  H      4.01576031      8.31736653      8.60409190
  N      3.43206218      8.06757667      1.89907772
  C      2.76358416      8.00337883      3.04841060
  N      2.40106419      9.22961230      3.40315912
  C      2.85624959     10.10104644      2.45850819
  C      3.50368727      9.36949508      1.51061608
  C      4.00643943      6.96418576      1.16608597
  C      3.08569162      5.75296827      1.16559819
  C      1.65607537      9.56661257      4.58044560
  H      2.54171850      7.10689909      3.61970031
  H      2.70256251     11.15617252      2.54577292
  H      3.96957152      9.63001470      0.57352627
  H      4.19894065      7.33071617      0.14791386
  H      4.96714220      6.70337477      1.62301049
  H      3.54355492      4.95266682      0.59059039
  H      2.13495072      6.00739016      0.70371055
  H      2.89785956      5.39506648      2.17568215
  H      1.46174815      8.65609818      5.14154282
  H      0.71041184     10.03350457      4.30284191
  H      2.22785239     10.27519417      5.19993481
  N      8.36247448      3.02246809      9.00981109
  C      9.34436720      2.15683299      9.24013509
  N     10.47572468      2.82935932      9.41724137
  C     10.20683125      4.16261835      9.29134137
  C      8.87638060      4.28222644      9.03649336
  C      6.96706775      2.71700480      8.79121064
  C      6.38677556      1.94801418      9.97102979
  C     11.74636248      2.22087418      9.69286055
  H      9.30627524      1.07429420      9.33014432
  H     10.96459854      4.91172409      9.39247977
  H      8.23411475      5.13660729      8.87410820
  H      6.45199950      3.67651459      8.65942645
  H      6.87406016      2.12618103      7.87580230
  H      5.34061350      1.72959524      9.77791716
  H      6.45212049      2.54661291     10.87646861
  H      6.91948237      1.01249006     10.12731502
  H     12.42025341      2.34771811      8.84474320
  H     11.56794463      1.15152269      9.86511604
  H     12.19486469      2.67200575     10.57747097
 Cl      2.15003381      5.46140641      4.87780525
 Cl      6.25003793      6.01714803      8.47946947
 Cl     10.32263896     -0.71677186      9.99023115
 Cl      3.50173334     11.65188234      6.31036117
 Cl      4.61939824      8.85805846     -1.51423433
