62
Energy =    -96.27959524 au
  N      6.60890385      6.13937811      4.50858968
  C      7.05195975      6.22495833      5.76246431
  N      8.36689454      6.38879465      5.74952055
  C      8.77756500      6.41321197      4.45603584
  C      7.67672783      6.25437488      3.67177461
  C      5.23516851      5.89844531      4.12687166
  C      4.87361002      6.60372257      2.82860626
  C      9.21231427      6.43688331      6.90389889
  H      6.46924387      6.21957705      6.66917585
  H      9.80572713      6.53574049      4.18961663
  H      7.61344472      6.21133581      2.59791029
  H      5.07768020      4.81547262      4.03007846
  H      4.60300415      6.25238900      4.94493400
  H      3.84332412      6.37348510      2.57264852
  H      5.50882519      6.27655003      2.01082905
  H      4.97535550      7.68237804      2.93371849
  H      9.96648012      7.21308710      6.78494372
  H      9.70667995      5.46714502      7.01133686
  H      8.58905291      6.64162389      7.77492006
  N      7.99626803      3.11722577      8.78638400
  C      8.31139753      2.09439223      7.99744555
  N      7.46959014      2.05796408      6.97242402
  C      6.62528058      3.12216381      7.07799022
  C      6.94802421      3.78534214      8.21911757
  C      8.61065864      3.44209822     10.05081911
  C      9.27988965      4.80861812     10.02268059
  C      7.48610973      1.10856419      5.89837509
  H      9.10006966      1.39206016      8.17473992
  H      5.85551785      3.28745145      6.34705160
  H      6.56749757      4.70378774      8.63565846
  H      7.83030365      3.43022346     10.81935632
  H      9.34288281      2.66115706     10.27416335
  H      9.73479737      5.01366751     10.98807480
  H      8.54320626      5.57953278      9.80880105
  H     10.04934838      4.82536809      9.25691115
  H      8.37932272      1.26975447      5.29373116
  H      6.59366820      1.26243164      5.29054174
  H      7.49636961      0.09217627      6.29328319
  N      9.51250627      3.48009276      2.12993411
  C      8.52502562      3.39662057      1.23599124
  N      7.38073128      3.19941694      1.87635812
  C      7.63246905      3.19612185      3.21402805
  C      8.96890894      3.36920249      3.37948672
  C     10.89455485      3.74605511      1.81962453
  C     11.11265830      5.23215353      1.54697387
  C      6.07758050      3.13231176      1.28450130
  H      8.64745096      3.43117207      0.17393216
  H      6.82839729      3.05802235      3.91302874
  H      9.55584962      3.41259055      4.28076703
  H     11.49818245      3.41134575      2.66633102
  H     11.16481171      3.16154934      0.93491046
  H     12.05290779      5.38786470      1.02572096
  H     11.13163805      5.78985637      2.47781011
  H     10.29508927      5.61504910      0.93900844
  H      5.88267265      4.07544820      0.77103052
  H      5.34971180      2.96995027      2.07931551
  H      6.02513834      2.31768824      0.56197551
 Cl      4.67434473      2.50403795      4.41086404
 Cl      6.56265766      6.92882933      8.94811180
 Cl      7.83755311      5.89738800      0.36754643
 Cl     -5.88344611     -6.03482406    -27.32377731
 Cl     10.35498084      3.18712380      6.44518138
