#B3LYP/6-31+G(d) OPT FREQ

62, Energy =    -96.28372228 au

0 1
  N      4.04828638      5.47769197      4.25725662
  C      4.82191686      4.58532455      3.64416900
  N      4.06050754      3.71623002      2.98813390
  C      2.76260292      4.10134907      3.13375222
  C      2.75265959      5.20412991      3.92948557
  C      4.52501677      6.60720357      5.01859851
  C      4.79587002      7.79037240      4.09525818
  C      4.56924230      2.69245946      2.12411252
  H      5.88541804      4.52138746      3.74411148
  H      1.95366650      3.57380907      2.67102679
  H      1.93535294      5.79949000      4.28153859
  H      3.77063436      6.85892291      5.76903103
  H      5.44686851      6.31318570      5.53098671
  H      5.36922238      8.54758805      4.62123714
  H      3.86597142      8.22970365      3.73778191
  H      5.36371156      7.44438614      3.23438235
  H      5.07668436      3.18443430      1.29129215
  H      3.75092210      2.07973579      1.75425268
  H      5.29671861      2.06775318      2.65285815
  N     10.43612026      4.40725040      6.01533408
  C      9.45118382      3.90930401      6.75909512
  N      8.93032107      2.85476706      6.14413735
  C      9.61421892      2.66013286      4.98329964
  C     10.55631303      3.63811607      4.89455159
  C     11.14704880      5.62790883      6.31767468
  C     12.55010905      5.63824922      5.73521435
  C      7.76294077      2.13249837      6.56071553
  H      9.10678071      4.31645182      7.68721408
  H      9.34437783      1.87170393      4.30960648
  H     11.22340104      3.89505313      4.09192638
  H     10.56965254      6.46343208      5.91042704
  H     11.16844773      5.73380682      7.40698742
  H     13.06934942      6.53619072      6.05915224
  H     12.50615344      5.64055644      4.64714991
  H     13.11287156      4.76872158      6.06804334
  H      8.00580698      1.41048889      7.34201663
  H      7.35581372      1.61054735      5.68996853
  H      7.03040779      2.84613510      6.93596749
  N      8.52484087      4.38007302      1.66968746
  C      8.94886286      5.63385031      1.72405050
  N      8.70273370      6.12567945      2.93042823
  C      8.12037481      5.15087946      3.67643077
  C      8.00063386      4.05343561      2.88166718
  C      8.58150690      3.49632701      0.53543416
  C      9.30174511      2.20327366      0.89711735
  C      9.09285607      7.41864886      3.40652949
  H      9.40450156      6.17354272      0.91966734
  H      7.83972141      5.32155830      4.70144264
  H      7.59557907      3.07733734      3.08029371
  H      7.55646913      3.28823551      0.21251110
  H      9.10633205      4.01795906     -0.26844062
  H      9.42323059      1.58718152      0.00993158
  H      8.73271681      1.64219473      1.63367508
  H     10.28244625      2.43440775      1.30611915
  H     10.18348860      7.48364165      3.36947216
  H      8.73888344      7.53365513      4.42926354
  H      8.66039471      8.20048740      2.78138623
 Cl      7.31068287      5.81570739      6.86285545
 Cl    -52.48233132     40.48656330     45.30169292
 Cl      7.03855781      0.85010197      3.54467064
 Cl     11.72802606      5.44642744      2.39815852
 Cl      5.68332681      5.77743943      1.39553248

