#B3LYP/6-31+G(d) OPT FREQ

62, Energy =    -96.29680504 au

0 1
  N      5.02806240      5.40885428      3.80896631
  C      5.08169563      5.04439149      2.53361530
  N      5.09284372      3.71687296      2.46576018
  C      5.03440863      3.22232234      3.73413361
  C      4.98948124      4.28843320      4.57841334
  C      5.03387527      6.76964543      4.28149489
  C      3.61157684      7.30173715      4.41788263
  C      5.20324487      2.92426842      1.27593881
  H      5.24732449      5.74259414      1.72499810
  H      5.08386665      2.17088085      3.92578209
  H      4.99830554      4.34601021      5.64862112
  H      5.53765739      6.77830943      5.25138015
  H      5.59423948      7.36110355      3.55287487
  H      3.64153234      8.32406292      4.78278557
  H      3.04392474      6.69827486      5.12374286
  H      3.10666690      7.29147460      3.45386812
  H      4.24631770      2.45768015      1.03527324
  H      5.94576601      2.13745451      1.45553845
  H      5.51661419      3.55637045      0.44891711
  N      9.53830310      3.86481819      6.70405155
  C     10.36630067      3.53673559      5.71643972
  N      9.84808788      2.51917176      5.04136287
  C      8.66254912      2.17771255      5.61303123
  C      8.46868622      3.02169256      6.66353739
  C      9.72475887      4.93489899      7.64905252
  C     10.25906171      4.40600080      8.97584329
  C     10.43213607      1.92536563      3.87555350
  H     11.23373297      4.08981031      5.39078321
  H      8.04037373      1.41372060      5.19139634
  H      7.64332570      3.13231213      7.33573048
  H     10.42309643      5.65054611      7.21197460
  H      8.74963589      5.41623199      7.78896364
  H     10.37922406      5.22808234      9.67561326
  H     11.22389532      3.92109655      8.83691307
  H      9.56399350      3.68781924      9.40423331
  H      9.63460563      1.50212373      3.26412971
  H     11.12962396      1.13402011      4.15545959
  H     10.96674700      2.70498775      3.33347846
  N      8.74034149      5.03508155      1.97822112
  C      9.00837348      6.22857037      2.48650342
  N      8.59720597      6.27168990      3.74456177
  C      8.05558669      5.06287337      4.05487204
  C      8.14361595      4.28297894      2.94636500
  C      8.98100617      4.62187263      0.62058635
  C      9.90066790      3.41003393      0.57026081
  C      8.71437046      7.37528446      4.65153803
  H      9.48729571      7.03086954      1.96385706
  H      7.62816374      4.88429379      5.02191734
  H      7.85428034      3.26011920      2.79000266
  H      8.01671310      4.39622133      0.15502267
  H      9.42590332      5.46845392      0.09447039
  H     10.15326322      3.17749903     -0.46081393
  H      9.41558246      2.54633796      1.01568248
  H     10.81306579      3.62854964      1.11862023
  H      9.76570740      7.53988366      4.89449692
  H      8.15843392      7.13668399      5.55790685
  H      8.30439952      8.27497264      4.19240249
 Cl      6.56568744      5.69793151      7.15342569
 Cl    -55.53889928     42.03858081     47.99314427
 Cl      7.37973374      0.92671158      2.71435480
 Cl     11.63535480      5.19000920      3.49016315
 Cl      6.67460043      7.34184546      1.24253807

