#B3LYP/6-31+G(d) OPT FREQ

62, Energy =    -96.26572760 au

0 1
  N      7.76386784      3.54900264      7.23359084
  C      7.08820845      4.40517188      6.47444444
  N      7.79834582      4.68300452      5.38854494
  C      8.98914517      4.02739120      5.47726766
  C      8.96751246      3.31487621      6.63425871
  C      7.26196354      3.07675609      8.50119782
  C      8.18978474      2.08851279      9.18472029
  C      7.42143530      5.57281671      4.32803027
  H      6.07922040      4.70755945      6.65626998
  H      9.71674443      4.08789702      4.69306761
  H      9.71199383      2.67398835      7.05664795
  H      7.11278246      3.96230621      9.12924882
  H      6.28857462      2.61724534      8.29971506
  H      7.74189816      1.77307881     10.12417442
  H      9.15138567      2.54631847      9.40558532
  H      8.34302808      1.20706301      8.56516645
  H      7.99653734      5.30723437      3.43814550
  H      7.63825071      6.60143237      4.61919089
  H      6.35531583      5.47529606      4.13194455
  N      4.07629632      5.76588330      9.23378777
  C      4.09958274      4.43697827      9.24147229
  N      3.98788912      4.01191858     10.49715294
  C      3.89727363      5.08910119     11.31874113
  C      3.95254413      6.19183810     10.52283722
  C      4.22680702      6.61920908      8.07833288
  C      3.43157677      6.10991464      6.88489082
  C      3.97634695      2.64961549     10.94889116
  H      4.18806103      3.80267816      8.36937299
  H      3.75083849      4.95026433     12.37896465
  H      3.92611015      7.23094471     10.77667655
  H      3.88628684      7.61819725      8.36370983
  H      5.30243923      6.67846658      7.84632491
  H      3.59441984      6.76863840      6.03611109
  H      2.36652121      6.08985157      7.11147865
  H      3.73735012      5.10594189      6.60114278
  H      3.57916781      2.64162611     11.97142621
  H      4.99055827      2.24846743     10.95507463
  H      3.36128089      2.04194033     10.28777875
  N      5.85439484      2.60040202      0.39541908
  C      6.57603200      2.68944250      1.50887601
  N      5.93064308      2.06654458      2.48880444
  C      4.76136874      1.57279947      1.98562854
  C      4.71521906      1.90886950      0.66726838
  C      6.21827689      3.10730470     -0.90665871
  C      7.60900419      2.62864701     -1.30139052
  C      6.42681832      1.90009100      3.82464031
  H      7.54165983      3.17760446      1.62788405
  H      4.06322276      1.03906217      2.59741505
  H      4.00399095      1.70744313     -0.12051835
  H      5.45635563      2.74309283     -1.60876332
  H      6.19295323      4.20029080     -0.88017964
  H      7.85183689      2.99816482     -2.29320416
  H      7.63621579      1.54225478     -1.32287085
  H      8.35904650      2.98789475     -0.60040479
  H      6.55006991      0.83820515      4.04457311
  H      5.73473953      2.31794794      4.56180714
  H      7.39175779      2.39579571      3.89857147
 Cl      9.44450116      3.93700491      2.11792541
 Cl      3.00605674      3.51212615     14.00079050
 Cl      4.47578842      2.65059607      6.52791177
 Cl      3.54222204      1.69008322     -2.34538829
 Cl      7.50548850      6.50832702      8.08796321

