62
Energy =    -96.26673709 au
  N      4.09917644      3.00371406      2.18512370
  C      3.50723884      4.08561944      2.68707074
  N      3.19782067      4.90974479      1.68977587
  C      3.58487349      4.33498056      0.51897350
  C      4.15314774      3.13745099      0.82989842
  C      4.59170573      1.86947531      2.92402273
  C      3.60074379      0.71165742      2.86950756
  C      2.59666299      6.20550131      1.82014608
  H      3.38930479      4.32267206      3.72981808
  H      3.46440637      4.86288725     -0.40964392
  H      4.64176344      2.40375351      0.22241608
  H      5.54462259      1.57638592      2.46131314
  H      4.75597340      2.18109722      3.95692708
  H      3.99889102     -0.13153113      3.42560632
  H      3.44148542      0.40060475      1.84051023
  H      2.64439784      0.99788403      3.30407264
  H      1.51204535      6.11686469      1.90117226
  H      2.84552227      6.78501802      0.92625255
  H      2.98493463      6.68780323      2.71530709
  N      6.65179223      5.26291113      2.51166175
  C      6.87143701      4.77826399      1.29194487
  N      6.44878888      5.66382650      0.39833938
  C      5.95465462      6.74728549      1.05933992
  C      6.08593215      6.49654714      2.39058068
  C      7.00191612      4.60743313      3.74692923
  C      8.35952891      5.09127250      4.24668387
  C      6.46580540      5.50727341     -1.02651441
  H      7.21900516      3.76571546      1.08769994
  H      5.49405569      7.55622707      0.52818458
  H      5.78693726      7.06373667      3.24830265
  H      6.22350257      4.83633453      4.48043357
  H      7.03584667      3.53332364      3.55494562
  H      8.59402110      4.60693117      5.19161274
  H      8.34572610      6.16893396      4.40207142
  H      9.13660711      4.84585759      3.52363337
  H      7.32052750      6.03185552     -1.45638081
  H      5.54328950      5.94610117     -1.42326576
  H      6.52756386      4.44988841     -1.27069808
  N      1.97891603      6.89235043      8.96076145
  C      2.29320648      6.89651740      7.66774875
  N      1.41269935      7.65278266      7.01154233
  C      0.51656297      8.14137961      7.92249544
  C      0.87712674      7.66779385      9.14527824
  C      2.69136300      6.23593896     10.02890515
  C      3.90974407      7.05443672     10.43990658
  C      1.41772568      7.89641998      5.59682314
  H      3.10696858      6.37849537      7.19043332
  H     -0.29389033      8.77803506      7.63441103
  H      0.43576855      7.73443039     10.13423365
  H      1.98767635      6.16236946     10.87110416
  H      2.99412495      5.24260346      9.69184494
  H      4.44110222      6.53771985     11.23345797
  H      3.59236779      8.02358968     10.81569289
  H      4.58588182      7.20016000      9.59874003
  H      2.26497296      7.36452910      5.16102268
  H      1.51717035      8.96382860      5.39564832
  H      0.49198404      7.53557366      5.14680564
 Cl      3.61687230      7.13137888     -1.21894133
 Cl      4.16424147      5.98627016      5.14350486
 Cl      7.21596543      1.68488104      0.95797457
 Cl     21.87115364     22.72150037     29.47596120
 Cl      0.19190971      6.80754827     12.07874446
