#B3LYP/6-31+G(d) OPT FREQ

62, Energy =    -96.26614912 au

0 1
  N      8.74360245      6.80212618      8.09148434
  C      8.73853874      6.28572603      6.86502780
  N      9.19037071      5.03745228      6.92398253
  C      9.48891557      4.75267284      8.22401532
  C      9.20618708      5.86362457      8.95864153
  C      8.29845942      8.12390127      8.46180627
  C      6.81027580      8.28406807      8.17576057
  C      9.35087859      4.14129264      5.81597437
  H      8.38571504      6.78648054      5.96968044
  H      9.84339783      3.78702240      8.51757355
  H      9.32163768      6.10468618     10.00433351
  H      8.52513339      8.24712581      9.52846578
  H      8.86503235      8.85860594      7.88345094
  H      6.48157299      9.26733873      8.49976561
  H      6.23964616      7.53267757      8.71684726
  H      6.61411214      8.18292354      7.11003701
  H      8.95686469      4.61163143      4.91876257
  H      8.81426591      3.20118150      6.01936271
  H     10.40740897      3.91087890      5.67260168
  N      6.46153004      4.05177195      2.71135976
  C      6.38415513      4.66970944      3.88633691
  N      5.99877483      3.79413539      4.80620466
  C      5.82940233      2.58457144      4.20479510
  C      6.12319155      2.74627893      2.88535517
  C      6.89286014      4.64390464      1.47148021
  C      8.41098041      4.56223723      1.34476209
  C      5.81520861      4.05762680      6.20297727
  H      6.62198200      5.71690101      4.06422834
  H      5.58020726      1.71017815      4.76835783
  H      6.06290138      2.07660054      2.05017909
  H      6.39930638      4.09478332      0.66098877
  H      6.58110016      5.69005814      1.46533666
  H      8.71648300      4.94262140      0.37407910
  H      8.74283654      3.53002186      1.43532044
  H      8.88587510      5.16006350      2.12129221
  H      6.39596160      3.31299597      6.76407962
  H      4.76239135      3.96108094      6.47065555
  H      6.15572961      5.06527834      6.42596192
  N      3.31135249      5.18976632      0.99953393
  C      2.77855194      4.02648858      0.63812371
  N      2.64029030      3.25981902      1.71124970
  C      3.05673786      3.96636147      2.79786144
  C      3.47388963      5.18016141      2.35653544
  C      3.54937880      6.30629890      0.12327273
  C      2.32336510      7.21433477      0.08246634
  C      2.11974398      1.92833826      1.67519596
  H      2.55371860      3.72850327     -0.36333386
  H      3.02203557      3.55914933      3.78738276
  H      3.87625168      6.01748958      2.88935004
  H      4.42948659      6.84792040      0.48204872
  H      3.76067552      5.90405860     -0.86955312
  H      2.40445789      7.92921702     -0.73166251
  H      2.21815642      7.75463239      1.02001885
  H      1.43526152      6.60022241     -0.05924278
  H      1.11609282      1.96242030      1.24635750
  H      2.08650868      1.51729827      2.68158472
  H      2.76893199      1.31975773      1.04260256
 Cl      7.68669486      1.47531449      6.74273488
 Cl      5.00047990      2.50895796     -0.22681170
 Cl      7.28175496      7.68844687      4.33514350
 Cl      9.50896813      7.77346329     11.57113049
 Cl      0.15439284      4.53453884      0.46339840

