#B3LYP/6-31+G(d) OPT FREQ

62, Energy =    -96.27497381 au

0 1
  N      3.21420588      2.18960650      2.56629005
  C      4.14759193      3.13457426      2.65802856
  N      5.21228663      2.76733474      1.95902240
  C      4.96115729      1.54891043      1.40926286
  C      3.70753535      1.18373349      1.79533533
  C      1.97104307      2.14566962      3.29100082
  C      0.76900400      2.04244326      2.36445796
  C      6.41023214      3.54136493      1.83526801
  H      4.08124758      4.08487615      3.16900312
  H      5.69010981      1.03219819      0.82009732
  H      3.15727059      0.29013236      1.60288760
  H      2.02528282      1.26211207      3.93974584
  H      1.90681378      3.04779313      3.90245823
  H     -0.14222268      2.04660809      2.95545002
  H      0.80412807      1.12022513      1.79260453
  H      0.73945725      2.88088298      1.67358798
  H      7.24445748      3.05906859      2.35960226
  H      6.21717453      4.51503457      2.28240680
  H      6.67797258      3.65311604      0.78500047
  N      5.81904195      2.40653761      6.13980945
  C      5.97265729      1.41731465      5.26563869
  N      7.17587555      0.88227901      5.42308948
  C      7.81360824      1.55820478      6.41796799
  C      6.95992569      2.51506479      6.87550628
  C      4.64506446      3.24208992      6.23359086
  C      4.15447836      3.35715639      7.66982196
  C      7.71951162     -0.15604865      4.60092031
  H      5.19727522      1.00540858      4.63615820
  H      8.81622081      1.32669694      6.71125929
  H      7.06659450      3.23105492      7.67491497
  H      4.88941623      4.23076337      5.83261117
  H      3.88022045      2.78087928      5.60430743
  H      3.27265685      3.98937523      7.70301102
  H      4.92026104      3.79965699      8.30375526
  H      3.89691545      2.37435322      8.05833682
  H      8.28640452     -0.86111792      5.20886834
  H      8.38578322      0.30110578      3.86065065
  H      6.90281001     -0.66653513      4.09414123
  N      7.06945185      6.88772935      5.83453490
  C      7.37535329      7.04158645      4.55068999
  N      8.10991316      6.00916921      4.15235492
  C      8.24161912      5.15037365      5.20344831
  C      7.59092147      5.70249088      6.26143578
  C      6.25297933      7.76234951      6.64010866
  C      4.96541102      7.05839103      7.05017965
  C      8.69093657      5.82120347      2.85321205
  H      7.08827813      7.87356875      3.94039465
  H      8.75500795      4.21599899      5.08866446
  H      7.45123805      5.36810647      7.28009008
  H      6.82237298      8.04015196      7.53225468
  H      6.03669154      8.65725938      6.05032441
  H      4.30319016      7.75923065      7.55101269
  H      5.19673186      6.24248395      7.73004401
  H      4.46723238      6.67099974      6.16512013
  H      8.96890281      4.76916946      2.75372429
  H      9.58353396      6.44249792      2.74403871
  H      7.96963904      6.08951625      2.08298205
 Cl      9.22273200      2.48549751      3.26973858
 Cl    -23.54895948     28.28406381     -3.79476332
 Cl      6.85981126      4.83178827      9.30213616
 Cl      4.91332985      6.13695942      3.53141680
 Cl      3.68548185     -0.48928146      4.15940993

