#B3LYP/6-31+G(d) OPT FREQ

62, Energy =    -96.28441137 au

0 1
  N      4.04240545      4.37287144      3.45475454
  C      4.20599639      4.76477193      2.19255110
  N      4.45599995      6.06729230      2.17741102
  C      4.44038707      6.53148734      3.45556284
  C      4.18063290      5.46405160      4.25945480
  C      3.80431767      3.01743554      3.89251369
  C      4.86829692      2.06221308      3.36590279
  C      4.75061064      6.84383492      1.00893969
  H      4.28466529      4.12443838      1.32159856
  H      4.69186741      7.55197485      3.67388259
  H      4.13183816      5.38793156      5.32627639
  H      3.82989224      3.02022550      4.98379849
  H      2.81090114      2.70529818      3.55297826
  H      4.58207489      1.04001753      3.59835858
  H      5.81564599      2.27565280      3.85190586
  H      4.99223409      2.15843378      2.29054229
  H      5.46361837      7.62437091      1.29381101
  H      3.84533447      7.31722939      0.62551227
  H      5.16696811      6.18782272      0.24754203
  N      9.31484507      4.24185683      7.21091567
  C      8.87640876      3.52570988      6.17743997
  N      9.88079395      3.32538025      5.33020464
  C     10.99348269      3.92622755      5.83395211
  C     10.64281171      4.49451312      7.01943383
  C      8.51161556      4.63349455      8.34156462
  C      8.81266777      3.75753949      9.55352117
  C      9.80866852      2.73614826      4.02652734
  H      7.84622212      3.21817837      6.07560651
  H     11.92252138      3.93571317      5.30588758
  H     11.22217684      5.07356134      7.70784005
  H      8.71359684      5.68311189      8.56925703
  H      7.46311270      4.51622034      8.04660082
  H      8.20567438      4.07909672     10.39466408
  H      9.86300847      3.82188019      9.83334614
  H      8.57004893      2.72136965      9.33137310
  H     10.46877734      1.87079126      3.96138312
  H     10.14459809      3.50317589      3.31807573
  H      8.78492555      2.44629831      3.80682102
  N      7.97892642      5.65730811      1.87327373
  C      8.31536075      6.57312300      2.77264624
  N      7.83981677      6.21182545      3.95424646
  C      7.19211993      5.02245879      3.81361713
  C      7.28541376      4.66800248      2.50449957
  C      8.34215498      5.63243084      0.47970974
  C      9.68855231      4.93511309      0.30105820
  C      7.95820963      6.97608540      5.15785144
  H      8.86271250      7.47200198      2.57973643
  H      6.70849815      4.55036700      4.64683464
  H      6.88958043      3.84113976      1.94603086
  H      7.55822693      5.08828315     -0.05432503
  H      8.38921062      6.66237457      0.12013170
  H     10.06589494      5.09702313     -0.70476435
  H      9.57827922      3.86585807      0.46556639
  H     10.40561940      5.32398132      1.02095665
  H      9.01111788      7.05485742      5.43387444
  H      7.39070390      6.48672921      5.94618734
  H      7.55561452      7.97349956      4.96704632
 Cl      5.74416202      3.65787196      6.69800576
 Cl    -57.69239201     42.86436283     49.61649709
 Cl      5.63263640      3.22454503     -0.08578273
 Cl     10.96458721      5.70500103      3.58297542
 Cl      6.52615505      8.93200327      2.82985016

