#B3LYP/6-31+G(d) OPT FREQ

62, Energy =    -96.28671792 au

0 1
  N      4.74331997      5.76865544      3.47154521
  C      4.23795594      4.97173015      4.40533520
  N      4.49130888      3.70821768      4.08408869
  C      5.19970462      3.69953117      2.91869658
  C      5.35626861      4.99543711      2.53379358
  C      4.69083616      7.20833647      3.45972890
  C      3.28472862      7.70331387      3.14193690
  C      4.09691412      2.53755567      4.81384008
  H      3.71688913      5.29507103      5.28323568
  H      5.56441140      2.77719188      2.51196999
  H      5.87275186      5.46292492      1.71275032
  H      5.01463879      7.56600747      4.43997139
  H      5.39476671      7.54195212      2.68745017
  H      3.28014320      8.78922155      3.12756245
  H      2.56520275      7.36099448      3.88485601
  H      2.97664779      7.34702533      2.16186919
  H      4.14274306      2.73632995      5.88239035
  H      4.78978292      1.73045636      4.55306369
  H      3.08086540      2.24344223      4.54223012
  N     10.19126140      3.91918836      5.70083217
  C      9.01128765      3.86403495      6.31527992
  N      8.47258174      2.66815220      6.10746440
  C      9.33389853      1.93573279      5.35032648
  C     10.41852564      2.71933065      5.09936808
  C     11.10262309      5.03367260      5.67403348
  C     12.11928755      4.92773299      6.80585432
  C      7.18114655      2.23996309      6.55616558
  H      8.50815326      4.67427383      6.80965227
  H      9.08233974      0.95038408      5.01618352
  H     11.28563171      2.57861981      4.48088095
  H     11.61577467      4.99478010      4.70196181
  H     10.52412863      5.95460276      5.76538029
  H     12.80020575      5.77251754      6.76291212
  H     12.69881681      4.01457792      6.69901462
  H     11.62404142      4.92321608      7.77628312
  H      6.75997800      1.58994553      5.78459854
  H      6.55834701      3.12293035      6.69113285
  H      7.26000695      1.69372295      7.49706427
  N      8.96867709      4.31295442      2.30757165
  C      8.38562126      5.01717796      3.27171775
  N      8.79524227      6.27695095      3.20255060
  C      9.65614953      6.38577900      2.15822473
  C      9.77081112      5.15086065      1.60113858
  C      8.80469207      2.90740498      2.03578094
  C      8.19290072      2.68743841      0.65637529
  C      8.31332442      7.36365186      4.00236964
  H      7.68629177      4.64554193      3.99544063
  H     10.10647849      7.31553351      1.88241757
  H     10.37131736      4.81707122      0.78273926
  H      9.79286260      2.44240607      2.09521817
  H      8.15709240      2.47096528      2.79954847
  H      7.91443037      1.64241219      0.55707801
  H      8.89533739      2.94151402     -0.13343086
  H      7.30082643      3.29924236      0.54069716
  H      9.14845524      7.92908405      4.41580213
  H      7.68875708      6.96896506      4.80298213
  H      7.71711619      8.01294596      3.35734908
 Cl      6.32228664      5.53663177      6.23249306
 Cl    -55.60120558     42.29217207     47.58134781
 Cl      6.60675688      0.69553573      3.68638532
 Cl     12.21940952      3.96287925      2.81261087
 Cl      6.90989172      7.42007683      0.98945035

