62
Energy =    -96.25267584 au
  N      3.96283531      6.54267724      6.07008396
  C      3.81372110      5.66495151      7.06275238
  N      4.45395958      6.12044058      8.14170568
  C      5.03367693      7.31445055      7.81602051
  C      4.72598283      7.57614155      6.51753571
  C      3.43056988      6.43603705      4.73219548
  C      1.92236491      6.21456211      4.73547582
  C      4.47474882      5.45890397      9.41466039
  H      3.20352081      4.78229063      7.07198490
  H      5.60695860      7.87978609      8.52129348
  H      4.92046277      8.41900952      5.86634985
  H      3.67280448      7.38103678      4.22719300
  H      3.93238063      5.60704731      4.22219561
  H      1.59321766      5.98033755      3.72674950
  H      1.41522409      7.11909170      5.05809639
  H      1.63841182      5.39700942      5.39466598
  H      3.51306118      4.95244132      9.54649402
  H      4.62718309      6.18884883     10.20773614
  H      5.27363358      4.71389774      9.45153129
  N      0.97620212      9.32234577      6.44273983
  C     -0.15448254      8.64313961      6.65381946
  N      0.07467361      7.70613854      7.58134876
  C      1.33981112      7.88834226      8.06516907
  C      1.90218282      8.89733260      7.35650652
  C      1.17961008     10.40177770      5.50810595
  C      0.95416269     11.74717514      6.18884659
  C     -0.90228682      6.80444077      8.11473741
  H     -1.00778110      8.66857157      6.00788621
  H      1.72659268      7.27643007      8.85280258
  H      2.87996638      9.32693088      7.39175145
  H      2.19970455     10.31720601      5.11197921
  H      0.46908469     10.27414057      4.68726201
  H      0.96413086     12.54191395      5.44953702
  H      1.73400637     11.93846962      6.92195634
  H     -0.00797500     11.73555387      6.69793748
  H     -1.53088058      6.42475817      7.30983888
  H     -1.53283527      7.33451548      8.83206145
  H     -0.39265942      5.97400119      8.59968525
  N      3.83008184     -0.45816439     10.04738938
  C      3.43862556     -0.40988847      8.77807949
  N      2.75850695      0.71742289      8.58370492
  C      2.71906436      1.40970603      9.75616997
  C      3.39616513      0.67339455     10.67664512
  C      4.64478127     -1.50754864     10.60849869
  C      6.07694693     -1.02365068     10.80663617
  C      2.14439242      1.14859715      7.35955457
  H      3.64179291     -1.23647764      8.09100815
  H      2.23569014      2.36811592      9.81561913
  H      3.58421562      0.86460350     11.71268678
  H      4.20988577     -1.82297721     11.56048438
  H      4.62327893     -2.33681205      9.88763286
  H      6.67303125     -1.82122798     11.23928806
  H      6.11532795     -0.15800323     11.46689236
  H      6.50915453     -0.75551098      9.84613280
  H      1.82104495      2.18386145      7.48832369
  H      1.27956135      0.52553757      7.12986705
  H      2.85450101      1.07503992      6.53718655
 Cl      4.28048236     -3.18612579      7.79360621
 Cl     38.29120943     18.53063937     18.08604110
 Cl      4.25369568      9.60621629      4.15608885
 Cl     -1.61822311     10.13898112      7.99766069
 Cl      1.49039303      4.23674488      8.62378198
