#B3LYP/6-31+G(d) OPT FREQ

62, Energy =    -96.26832721 au

0 1
  N      3.48828634      8.70161022      4.78245318
  C      3.38293134      7.91284007      5.84722236
  N      4.56185942      7.83807587      6.44580904
  C      5.45266271      8.57988438      5.73200894
  C      4.77606526      9.13162513      4.68792765
  C      2.41605857      9.09860967      3.90356078
  C      1.42405639      9.98679727      4.64673479
  C      4.83790340      7.03500605      7.59945491
  H      2.48828330      7.46348665      6.23931072
  H      6.48671474      8.65097174      6.00762994
  H      5.07977327      9.78794801      3.88973014
  H      2.86677927      9.64449703      3.07004291
  H      1.91761036      8.20196509      3.52751325
  H      0.58362154     10.22173014      3.99879262
  H      1.90647731     10.91578148      4.93903089
  H      1.05488911      9.48878116      5.54017423
  H      5.66227176      7.46832841      8.16257600
  H      5.10513162      6.02902188      7.26939022
  H      3.93498099      7.00009751      8.21096063
  N      2.61462047      3.68801274      8.65094303
  C      3.29235677      2.72134076      8.03875199
  N      3.49193727      3.07646307      6.77367171
  C      2.91806839      4.29649465      6.57291026
  C      2.36994497      4.68547189      7.75501225
  C      2.27434316      3.67349484     10.05404369
  C      0.85976857      4.18185567     10.29359351
  C      4.23376108      2.36197967      5.77521435
  H      3.56982720      1.79702065      8.53699875
  H      3.01990400      4.80610504      5.63561685
  H      1.87592313      5.60728224      8.01625705
  H      2.40246932      2.64136705     10.39854018
  H      2.98565268      4.31327051     10.58744790
  H      0.62840898      4.11522780     11.35320715
  H      0.14073338      3.58016495      9.74238648
  H      0.76567409      5.21965411      9.98238362
  H      4.77620086      3.09880406      5.17358747
  H      3.56057421      1.79792511      5.12723157
  H      4.92760451      1.67598263      6.25638601
  N      7.24499460      7.98219815      1.35628853
  C      7.15232896      9.28634569      1.10984423
  N      8.21956979      9.66738207      0.41494940
  C      9.02130338      8.58899083      0.21062629
  C      8.40692200      7.52855031      0.80198423
  C      6.28790790      7.18578713      2.08833546
  C      4.87326974      7.36337857      1.55983686
  C      8.51434927     10.99124056     -0.05658704
  H      6.32558482      9.92557578      1.41246572
  H      9.93879965      8.69715988     -0.34977159
  H      8.70413369      6.50275064      0.87180164
  H      6.58719664      6.13744887      2.01511576
  H      6.31212270      7.46286440      3.14657403
  H      4.21246999      6.75676307      2.17206988
  H      4.80414129      7.03324622      0.52826343
  H      4.56529770      8.39999425      1.62192511
  H      7.68103913     11.37313417     -0.64433704
  H      9.42195937     10.93222269     -0.66868005
  H      8.68207524     11.66103033      0.78668438
 Cl      4.57404068     10.99436677      1.94265568
 Cl      3.33638270      0.39558682     10.13635175
 Cl     11.30153372      9.99676027     -1.59135382
 Cl      5.15830925      5.39866950      4.55144949
 Cl      1.51426296      7.76396769      8.42074604

