#B3LYP/6-31+G(d) OPT FREQ

62, Energy =    -96.26262312 au

0 1
  N      8.00276908      4.52857443      8.19410266
  C      7.30092912      4.10406859      7.14688105
  N      7.89374742      3.02441517      6.63437700
  C      9.06890105      2.83200664      7.30410099
  C      9.13463763      3.76928313      8.28329494
  C      7.62601398      5.67667910      8.98234378
  C      8.03499258      5.54119991     10.44062412
  C      7.47848855      2.39020929      5.41859020
  H      6.29758473      4.44063214      6.94291111
  H      9.75631131      2.05458243      7.04019730
  H      9.89327837      3.94069107      9.01754728
  H      8.07939703      6.56737420      8.53482290
  H      6.53541808      5.74918332      8.89812166
  H      7.62879168      6.37887643     11.00048508
  H      9.11660744      5.54383921     10.56145871
  H      7.63173793      4.62204517     10.85918384
  H      8.06812266      1.49161025      5.24873004
  H      7.62690369      3.09496732      4.59573917
  H      6.42046040      2.13798400      5.47816124
  N      1.35846378      9.48550311      4.33547003
  C      2.61161668      9.28895148      3.93031819
  N      3.41196325     10.12116021      4.59008085
  C      2.65588648     10.87360247      5.43574521
  C      1.36620823     10.47418904      5.27818134
  C      0.21978592      8.72884825      3.87246104
  C     -0.54253684      8.10195787      5.03349876
  C      4.83745618     10.24182334      4.46790793
  H      2.87287621      8.52296097      3.20690230
  H      3.13106882     11.55907558      6.12134065
  H      0.47491647     10.82201106      5.75664913
  H     -0.44043697      9.38940621      3.30114174
  H      0.61604716      7.95163458      3.20641534
  H     -1.33037239      7.46502735      4.64191140
  H     -0.99558362      8.85874607      5.67119091
  H      0.12455658      7.49243085      5.63709457
  H      5.29119174      9.26230548      4.33332489
  H      5.20812336     10.72012496      5.38216829
  H      5.09230942     10.86867982      3.61224454
  N      4.35096689      6.32199327      5.28042195
  C      5.24202931      6.89100905      6.08166296
  N      4.62368997      7.73162321      6.89980266
  C      3.29082534      7.67355241      6.63194436
  C      3.11991776      6.78696166      5.61280730
  C      4.62818704      5.32383088      4.27862136
  C      4.00906829      3.98963397      4.68615585
  C      5.23886052      8.52773645      7.92047743
  H      6.30173844      6.68919651      6.04391439
  H      2.58202584      8.25162730      7.18836701
  H      2.24900778      6.46578390      5.08003794
  H      4.19484552      5.66351243      3.33249697
  H      5.71337817      5.24541076      4.19246421
  H      4.43143808      3.18461466      4.09087871
  H      2.93435980      4.00999088      4.52528126
  H      4.19633920      3.80303322      5.74150162
  H      4.88080477      8.20672119      8.89850252
  H      5.00489203      9.59100352      7.77898685
  H      6.31598666      8.39235077      7.87128376
 Cl      6.51380422    -12.19016492     32.95625257
 Cl      2.25949019      6.73520752      2.17121014
 Cl      4.93781360     11.83756235      7.38394733
 Cl      4.44981127      4.86322091      8.18481785
 Cl      8.19570312      5.68994619      5.33862965

