62
Energy =    -96.26067429 au
  N      7.59026400      2.73211448      4.50938486
  C      6.67655670      1.81185631      4.20940036
  N      7.26555142      0.83237533      3.53275139
  C      8.58745332      1.11957657      3.39613725
  C      8.79375501      2.31347246      4.01322097
  C      7.38186522      3.92130209      5.30338304
  C      7.78124039      3.67825072      6.75316175
  C      6.64045951     -0.34985460      3.01054527
  H      5.61591715      1.85501890      4.46260874
  H      9.23824966      0.42847586      2.87639628
  H      9.68647854      2.89175108      4.13131475
  H      7.98416883      4.72832655      4.87851696
  H      6.32728919      4.19320011      5.24671587
  H      7.70589887      4.60533650      7.31694058
  H      8.80777458      3.32282157      6.81289494
  H      7.12488836      2.93903258      7.20441937
  H      6.15299871     -0.90013175      3.81422130
  H      7.42164701     -0.96265271      2.54689489
  H      5.88702096     -0.07933928      2.27139206
  N      7.26421220      8.92176592      5.55264997
  C      8.28689230      8.79527765      6.39045689
  N      9.30183325      9.53071149      5.94789747
  C      8.92245251     10.14944296      4.79743320
  C      7.63961852      9.76849411      4.54963097
  C      5.96049911      8.32384892      5.73890745
  C      4.93088168      9.37904477      6.11520075
  C     10.59938461      9.67149655      6.54690014
  H      8.25447704      8.16369220      7.27053478
  H      9.60760074     10.81994885      4.29776075
  H      6.98042662     10.02726659      3.74735058
  H      5.66475097      7.82157506      4.81498548
  H      6.05858405      7.58586489      6.53704116
  H      3.94520760      8.92069088      6.17944302
  H      4.89121686     10.16861214      5.36750451
  H      5.17706913      9.82013887      7.07784265
  H     11.13000247     10.46412789      6.00312831
  H     11.15590185      8.73758717      6.46562209
  H     10.50091340      9.93304311      7.59923550
  N      3.56704007      6.16154422      8.11288477
  C      2.35079054      5.84000559      7.67646061
  N      2.45931863      4.84319040      6.80216077
  C      3.78241191      4.54123067      6.65206834
  C      4.47606048      5.36535033      7.47622179
  C      3.88241237      7.23369199      9.02013918
  C      3.42870503      6.91200757     10.44024390
  C      1.40031374      4.25517502      6.03476053
  H      1.43225411      6.25915871      8.02683870
  H      4.07707446      3.73838700      6.00041060
  H      5.52527522      5.46768383      7.67276296
  H      4.96593436      7.37224666      8.99509206
  H      3.38428212      8.13436143      8.65063866
  H      3.69861816      7.72981384     11.10272778
  H      3.91688849      6.00625871     10.79356601
  H      2.35036230      6.77100588     10.48156455
  H      0.59718424      3.91327071      6.68869642
  H      1.81248896      3.41137181      5.47990079
  H      1.00291319      4.99727581      5.34040583
 Cl      9.54837012     -1.51863828      1.84492957
 Cl      1.75477824      7.99677606      6.25850897
 Cl      3.55533756      1.78276738      4.82129056
 Cl      7.39537290      6.67915165      8.59382887
 Cl     11.52898753     11.99160889      4.39714327
