#B3LYP/6-31+G(d) OPT FREQ

62, Energy =    -96.25714299 au

0 1
  N      4.77520292      9.64824000      3.74717163
  C      5.91550657      9.40863774      4.39064608
  N      5.78373871      8.28099629      5.08085860
  C      4.52727409      7.79295875      4.88224868
  C      3.89374108      8.65395526      4.04050975
  C      4.50801924     10.74093607      2.84329511
  C      5.55864045     10.79848704      1.74092893
  C      6.78073736      7.65686836      5.90102088
  H      6.81149089     10.01170898      4.33481353
  H      4.24230120      6.84527524      5.29631999
  H      2.90589526      8.67319914      3.61213232
  H      3.50527867     10.57049588      2.43434746
  H      4.51215164     11.67885683      3.40688526
  H      5.31782000     11.60436243      1.05325073
  H      5.56995684      9.86255230      1.18665970
  H      6.54579211     10.97833387      2.16155958
  H      6.64599797      6.57130599      5.82307542
  H      6.64916744      7.94928711      6.94440947
  H      7.77152401      7.96069829      5.57058576
  N      8.81221548      7.07231054      1.67751674
  C      8.76824421      8.38890419      1.86034447
  N      9.25007282      8.99232719      0.77917762
  C      9.60609904      8.02734521     -0.11871016
  C      9.32805278      6.81945308      0.44332383
  C      8.30078595      6.07983669      2.59552337
  C      6.78714384      5.95570874      2.46191961
  C      9.36195576     10.41322741      0.60997749
  H      8.46497497      8.92876876      2.74357039
  H     10.02804106      8.25828843     -1.07423660
  H      9.54758000      5.81322887      0.07533368
  H      8.78236789      5.13009836      2.35803894
  H      8.56400581      6.37772365      3.61218915
  H      6.38773399      5.37433297      3.29176770
  H      6.53097704      5.46914041      1.52495960
  H      6.31833434      6.93771217      2.48447025
  H      8.60337142     10.77336101     -0.08671622
  H     10.34973241     10.66688533      0.22685839
  H      9.20843266     10.88362666      1.58525657
  N      3.29392910      4.30090592      2.88842908
  C      2.46130644      4.70153878      3.84194070
  N      1.94007201      5.87505767      3.49873397
  C      2.41597638      6.21470902      2.26891478
  C      3.26714408      5.22853330      1.88683612
  C      4.00562909      3.04971415      2.87390019
  C      3.13543367      1.95824106      2.26074331
  C      0.91693334      6.57780083      4.21477634
  H      2.30872451      4.19648737      4.77242409
  H      2.12089431      7.13036588      1.79252121
  H      3.84768720      5.11541654      0.99495909
  H      4.93155643      3.18693693      2.30964716
  H      4.26397617      2.80703572      3.90598480
  H      3.57997884      0.98075539      2.42662209
  H      3.01975992      2.11779256      1.19053255
  H      2.14825806      1.99074552      2.71887601
  H      0.02239661      5.95070665      4.23245944
  H      0.71126206      7.51721436      3.70293110
  H      1.23779299      6.77432536      5.23776972
 Cl      0.16671701      3.28973498      3.54425757
 Cl      8.70990210     10.96121198      3.82475260
 Cl      1.37098459      9.55208732      2.20949272
 Cl      5.39586519      4.72386778      5.42299701
 Cl     10.44822239      4.06250476     -0.52740710

