#B3LYP/6-31+G(d) OPT FREQ

62, Energy =    -96.25071077 au

0 1
  N      6.89488821      4.58946923      7.74306158
  C      7.51104498      4.05362719      8.80463437
  N      8.80833975      3.89281941      8.51919048
  C      9.01753320      4.33599096      7.24789782
  C      7.82381883      4.77065199      6.76035754
  C      5.48826260      4.90044797      7.63601461
  C      5.24175112      6.38317615      7.39246378
  C      9.82460961      3.34939514      9.37226170
  H      7.04022482      3.78935669      9.72947468
  H     10.00851662      4.32986744      6.83219820
  H      7.56711568      5.23666515      5.81817787
  H      5.08291767      4.33314590      6.79267568
  H      5.00080950      4.56139074      8.55535698
  H      4.17606818      6.55218117      7.27149024
  H      5.73838025      6.69810051      6.47696201
  H      5.59015869      7.00192956      8.21384925
  H     10.79568569      3.70902654      8.99971349
  H      9.81366899      2.25876836      9.33497493
  H      9.66946307      3.67232331     10.40011630
  N      4.53552011      8.77239029      3.41273224
  C      5.60025955      9.54024018      3.62746428
  N      5.69374628      9.79797928      4.92733104
  C      4.63168978      9.22265168      5.55787006
  C      3.90632137      8.58095416      4.60923172
  C      4.06014421      8.38003899      2.11306439
  C      5.05755346      7.46837876      1.40616122
  C      6.67737639     10.62985480      5.55509805
  H      6.33197771      9.80200992      2.89378561
  H      4.50906289      9.29760066      6.61961798
  H      3.00816832      8.00385324      4.68852130
  H      3.10423353      7.86821994      2.24954209
  H      3.90123488      9.30203860      1.54139135
  H      4.59987877      7.01861429      0.52830803
  H      5.38490028      6.68094019      2.08095855
  H      5.93275031      8.03107824      1.09392830
  H      6.54192584     10.57277914      6.63486130
  H      6.54555207     11.66012598      5.21906035
  H      7.67755607     10.28994397      5.28604500
  N      8.53286222      7.66387175      9.67307978
  C      8.33351249      8.01710247      8.40540912
  N      9.33565898      7.55525465      7.66570739
  C     10.19967340      6.88475061      8.47685060
  C      9.69323021      6.95017507      9.73735386
  C      7.65496368      7.96190695     10.77813531
  C      6.95195812      6.70343464     11.27330633
  C      9.51068066      7.73995757      6.25350046
  H      7.48038759      8.60797045      8.09261818
  H     11.06931430      6.35087879      8.11841953
  H     10.08303149      6.56149829     10.65473634
  H      8.24418507      8.40878196     11.58315766
  H      6.91524680      8.68559954     10.41020828
  H      6.32521304      6.95221818     12.12459291
  H      7.66964309      5.94202846     11.57740965
  H      6.31680542      6.30301162     10.48787049
  H     10.32574709      7.10384236      5.91799424
  H      9.75289959      8.78116279      6.03939360
  H      8.59805864      7.47189778      5.70487200
 Cl     12.29917809      4.59173920      7.67172887
 Cl      4.59134754     11.68915594      2.55018057
 Cl      6.92211892      6.76925692      4.40573070
 Cl     -5.47569775    -14.16048850     20.51657653
 Cl      5.73025350      9.73560405      8.86792471

