62
Energy =    -96.25087990 au
  N      0.23799922      8.37725923      6.10764504
  C     -0.84471159      8.83640668      6.73092412
  N     -1.09454386      8.06953468      7.78867207
  C     -0.19870944      7.04313228      7.79276677
  C      0.63465160      7.23369751      6.74119489
  C      0.78656339      8.90871310      4.88682446
  C      0.89563966     10.42766702      4.94623847
  C     -2.17539511      8.29480043      8.69754999
  H     -1.33351206      9.76423490      6.52927428
  H     -0.22281185      6.26823233      8.53090483
  H      1.47020078      6.65780274      6.40284287
  H      1.77308928      8.45799719      4.74776022
  H      0.13236382      8.60432061      4.06112338
  H      1.55769301     10.78904186      4.16189207
  H      1.28436970     10.73090486      5.91602305
  H     -0.08161636     10.88442277      4.81397645
  H     -2.20064743      7.50213485      9.44246783
  H     -3.11020505      8.30481968      8.13344429
  H     -2.03061743      9.26136526      9.18444236
  N     13.06057930     -0.01382365     -0.87997923
  C     12.63167673     -1.24778136     -0.63732708
  N     13.68123874     -2.03186895     -0.42019073
  C     14.81085957     -1.26959570     -0.52186980
  C     14.42249070      0.00106795     -0.81245025
  C     12.23559438      1.13603099     -1.16050759
  C     12.47591761      2.23882426     -0.13763889
  C     13.59578915     -3.43426170     -0.12439456
  H     11.61595960     -1.63781553     -0.63766263
  H     15.79140266     -1.67724028     -0.38551715
  H     14.99219633      0.91701749     -0.96583261
  H     12.49487984      1.51191028     -2.15391428
  H     11.19517789      0.80148279     -1.15756853
  H     11.78569733      3.05873953     -0.31527385
  H     13.49499690      2.61290935     -0.23903386
  H     12.32515812      1.86481837      0.87293131
  H     13.91171859     -3.62478384      0.90181569
  H     14.22834235     -4.00250006     -0.80563341
  H     12.54635639     -3.73149370     -0.24647969
  N      2.74569746      6.11011596      9.54604527
  C      1.83872496      6.51061082     10.44624456
  N      1.69225938      7.83063382     10.35713449
  C      2.58755136      8.30103765      9.44110216
  C      3.24906857      7.23046303      8.93729711
  C      3.24467684      4.75590792      9.50638593
  C      4.29591442      4.53579562      8.43326806
  C      0.83745997      8.66585786     11.14868030
  H      1.20253666      5.85741553     11.00612931
  H      2.61362041      9.34097464      9.18383103
  H      4.02582361      7.19120953      8.20480022
  H      3.65563614      4.55400547     10.50518857
  H      2.39407365      4.08423888      9.34431541
  H      4.59912437      3.49186767      8.44124959
  H      5.17489064      5.14516758      8.62334391
  H      3.90328413      4.77185546      7.44703304
  H     -0.04783342      8.11065351     11.45592884
  H      0.55627372      9.52775289     10.53633570
  H      1.37093837      8.99993901     12.04066146
 Cl     10.35472064     -3.37651618     -0.62612879
 Cl     -2.62242625      7.88737246      5.18784757
 Cl     15.72743492      2.87116526     -1.18613091
 Cl      3.19917514      6.04557626     12.52509496
 Cl      0.49783375     10.67006005      8.54368704
