#B3LYP/6-31+G(d) OPT FREQ

62, Energy =    -96.29029579 au

0 1
  N      5.29272934      5.55821617      4.02979933
  C      5.17958382      5.33509169      2.72528956
  N      4.81626563      4.07091098      2.53596731
  C      4.68758469      3.47396260      3.75386793
  C      4.98192990      4.41316041      4.69396591
  C      5.66454268      6.81595378      4.62578536
  C      4.42611164      7.62967502      4.98407438
  C      4.63773606      3.41014470      1.27687283
  H      5.48622284      6.05968636      1.98044482
  H      4.44755781      2.43591551      3.84564842
  H      5.05837310      4.35061105      5.76021866
  H      6.24624107      6.59446036      5.52360836
  H      6.27319708      7.35074132      3.89196238
  H      4.73004478      8.56691780      5.44049126
  H      3.80046184      7.08690523      5.69028077
  H      3.84562311      7.85114564      4.09081376
  H      3.59503012      3.11705409      1.14497313
  H      5.26384492      2.51099526      1.28107064
  H      4.93940761      4.07656818      0.47373335
  N     10.06149650      3.41838161      6.34369677
  C      8.96063501      2.83437503      6.80381565
  N      8.36749370      2.18012348      5.81035472
  C      9.10362526      2.36911208      4.67728881
  C     10.16930949      3.14364037      5.01256423
  C     10.97389689      4.23826992      7.10022431
  C     11.87932636      3.38301275      7.97944864
  C      7.10715799      1.49925966      5.88033808
  H      8.61816079      2.85959943      7.81750729
  H      8.78086819      1.95391363      3.74260297
  H     10.97119576      3.57391121      4.43944443
  H     11.57224905      4.79984693      6.37196985
  H     10.38492657      4.92890279      7.70836185
  H     12.56136392      4.02543470      8.52864348
  H     12.46677624      2.70706321      7.36261224
  H     11.29975764      2.79723725      8.69218230
  H      7.20027803      0.56659137      6.43947180
  H      6.77659367      1.28797454      4.86121376
  H      6.38451114      2.14898314      6.37313366
  N      9.03910961      4.94445416      2.05465171
  C      8.66445880      5.26815575      3.28677402
  N      9.36481753      6.31385225      3.70020865
  C     10.20267306      6.68518184      2.70093706
  C      9.99691818      5.82947894      1.66583766
  C      8.51707181      3.87582860      1.23906816
  C      7.90803500      4.43299598     -0.04403552
  C      9.34117934      6.90109985      5.00655380
  H      7.92642534      4.75556126      3.87013107
  H     10.88290082      7.50421198      2.80028177
  H     10.46014791      5.78827472      0.70285991
  H      9.33459136      3.18616461      1.00524874
  H      7.76937900      3.32697139      1.81624124
  H      7.28516395      3.67864733     -0.51524494
  H      8.68125515      4.73284639     -0.74770361
  H      7.31104037      5.31053978      0.19468057
  H      8.97327343      7.92592894      4.95240230
  H     10.36311228      6.89560512      5.38962608
  H      8.69985374      6.31347345      5.66230371
 Cl      7.22238389      4.91224343      6.98816036
 Cl    -58.32439158     43.37195769     50.12331166
 Cl      6.68684516      1.22396077      2.54008526
 Cl     12.37936302      5.46657229      4.34419763
 Cl      7.05004080      7.47412791      1.53015332

