62
Energy =    -96.25872072 au
  N      7.35186219      7.00867399      3.68073554
  C      7.25192195      5.88055869      4.37887014
  N      5.97669294      5.51310360      4.42097578
  C      5.23448186      6.47085086      3.78900830
  C      6.09884438      7.40699983      3.32046055
  C      8.56811933      7.72021295      3.38370474
  C      9.52102528      6.85301301      2.56861130
  C      5.50094697      4.37344958      5.14736137
  H      8.05663958      5.25671102      4.72040875
  H      4.16718804      6.41425976      3.72392360
  H      5.94590707      8.30282238      2.74819807
  H      8.29084621      8.61236826      2.81746097
  H      9.03185197      8.01898019      4.32828344
  H     10.45878167      7.38104161      2.41497121
  H      9.08422991      6.63475746      1.59686670
  H      9.72142302      5.91468941      3.07926403
  H      4.52868743      4.06512904      4.76664058
  H      5.42420367      4.63270605      6.20577501
  H      6.23043452      3.56835704      5.03069000
  N      2.04745960      8.74389775     -1.19784089
  C      2.24459825     10.03366458     -0.94638071
  N      3.38441075     10.16987889     -0.27835753
  C      3.93646412      8.93883062     -0.09828795
  C      3.09719316      8.04035931     -0.67950122
  C      0.93518868      8.22114253     -1.95245787
  C      1.38978501      7.76216153     -3.33327290
  C      3.96552934     11.39047500      0.20604498
  H      1.53060656     10.79410577     -1.25665446
  H      4.89516836      8.83927733      0.38912900
  H      3.16720741      6.97488777     -0.75111631
  H      0.49064147      7.39015729     -1.39831967
  H      0.21136538      9.04096711     -2.05338567
  H      0.54058426      7.36456531     -3.88123781
  H      2.15687945      6.99230335     -3.26327991
  H      1.78795272      8.60906809     -3.88566020
  H      3.96010054     12.14578232     -0.57792350
  H      4.99207305     11.16880060      0.52005953
  H      3.40158350     11.76347991      1.06163801
  N      9.71971914      4.52127715      7.76586571
  C      8.43061121      4.21480702      7.67411099
  N      7.91128531      4.16654893      8.89363452
  C      8.88085471      4.48233625      9.79436642
  C     10.01864865      4.70654792      9.08658384
  C     10.60060530      4.72347240      6.64364830
  C     10.74119134      6.21408750      6.35244171
  C      6.54633956      3.90881156      9.24801208
  H      7.94692288      3.96476770      6.74860461
  H      8.66845375      4.45500321     10.85038591
  H     11.00145835      4.97664157      9.41400255
  H     11.57203265      4.27333424      6.87358684
  H     10.15524486      4.20226568      5.79025998
  H     11.24002930      6.36901954      5.39992323
  H     11.31010293      6.71135813      7.13639393
  H      9.74662974      6.65487905      6.31739462
  H      5.95155753      4.80546750      9.06470159
  H      6.51880716      3.66016997     10.31429991
  H      6.15334131      3.08668402      8.65158373
 Cl      6.79391308      9.85962139      1.05004146
 Cl     -0.36167915     11.25517941     -2.16002536
 Cl      7.37510826      3.36296275     12.48198226
 Cl      7.34241602      6.74192025      6.89359624
 Cl      8.54934965      2.92024641      4.58303481
