#B3LYP/6-31+G(d) OPT FREQ

62, Energy =    -96.14847578 au

0 1
  N      5.48981714      5.66383699     10.13866650
  C      4.90198534      5.75108326      8.81741589
  N      4.04577915      4.58030970      8.74232618
  C      3.81883320      4.18824033     10.06570662
  C      4.67748826      4.82012231     10.88179776
  C      6.19227051      6.79775872     10.67286912
  C      5.27547681      7.88530462     11.23967027
  C      2.98762678      4.61477918      7.76593080
  H      5.68233628      5.77785584      8.04698449
  H      3.11582262      3.41025891     10.28944401
  H      4.84121699      4.68134723     11.93225234
  H      6.85914070      6.43832284     11.46332733
  H      6.79469700      7.20022139      9.85502526
  H      5.87371498      8.68108841     11.67244202
  H      4.63033905      7.46990584     12.01308157
  H      4.65484218      8.30676644     10.45372175
  H      2.49241704      5.60255616      7.73843600
  H      2.26052872      3.83635580      7.99270194
  H      3.41362361      4.42755294      6.77774753
  N      1.88260588      8.35801079      8.84167760
  C      2.33643387      7.80451827      7.68223215
  N      3.35195143      8.62096666      7.31611300
  C      3.52949962      9.64516348      8.20838000
  C      2.59912136      9.48121475      9.17869630
  C      0.83979731      7.78414798      9.64466575
  C      1.40641725      7.02254055     10.84329473
  C      4.20010326      8.39668270      6.17664439
  H      4.29872412      6.67407193      8.70175357
  H      4.29259498     10.38727852      8.08823480
  H      2.38951403     10.06121969     10.05557650
  H      0.16895367      8.57958797      9.99298202
  H      0.27516198      7.10098137      9.00458106
  H      0.60147349      6.54930752     11.40215927
  H      1.94283158      7.69960388     11.50612134
  H      2.09824113      6.25236006     10.50531539
  H      5.19995192      8.08233598      6.49696644
  H      4.28306403      9.30802066      5.58034278
  H      3.76087521      7.60234342      5.57549462
  N      7.90450318      2.80814647      8.63916056
  C      8.67335170      1.79184143      8.23766207
  N      8.00995307      1.09303912      7.30370384
  C      6.73995770      1.60902724      7.22251028
  C      6.67837299      2.68212509      8.04485892
  C      8.28015813      3.79265194      9.62411270
  C      9.16962396      4.87392321      9.02224369
  C      8.44662956     -0.18205431      6.81150073
  H      9.72688270      1.72124149      8.41233977
  H      5.99860024      1.17340691      6.58561323
  H      5.87231962      3.35561065      8.25274481
  H      7.36400284      4.24020893     10.01153097
  H      8.79572594      3.26259580     10.43152029
  H      9.50767213      5.54946241      9.80466728
  H      8.61831891      5.46351203      8.29141642
  H     10.04033651      4.43653139      8.54024952
  H      9.36909887     -0.07738753      6.23659651
  H      7.67392029     -0.61800731      6.18380627
  H      8.63586280     -0.82498353      7.67772707
 Cl      7.31248336      7.20056821      7.17327495
 Cl      8.58550825      0.19694721     10.08750509
 Cl     21.14781811     -6.62502015     -7.30123647
 Cl    -27.18631831    -17.33676183     -8.73638950
 Cl     20.37051741     -7.28353090     -5.27170668

