#B3LYP/6-31+G(d) OPT FREQ

62, Energy =    -96.26473524 au

0 1
  N      5.21225243      1.02720736      5.76907498
  C      4.97892878      0.95061641      7.07779913
  N      4.76612310      2.17731479      7.55206028
  C      4.91638120      3.06314178      6.52066052
  C      5.19028827      2.34177331      5.40447373
  C      5.55869890     -0.08818433      4.92890156
  C      4.32705396     -0.88316013      4.51230945
  C      4.59464735      2.52263369      8.93290780
  H      4.86385083      0.04647929      7.63587700
  H      4.80357591      4.11648426      6.67640859
  H      5.30986821      2.62860339      4.37837793
  H      6.03810438      0.30941214      4.03368154
  H      6.26883052     -0.70343631      5.48962827
  H      4.63391129     -1.79337092      4.00357253
  H      3.74173308     -0.28113201      3.82212133
  H      3.71876718     -1.14748147      5.37464857
  H      4.22813593      3.54692513      9.00371043
  H      5.55378022      2.43364319      9.44725252
  H      3.88412101      1.84342013      9.40389222
  N      1.41953864      3.10268501      6.86462578
  C      1.65702704      4.12728674      6.05226552
  N      2.08580011      3.66510548      4.88517592
  C      2.07645633      2.30557442      4.92671562
  C      1.65896447      1.94975228      6.16900322
  C      0.90200107      3.20731088      8.20443544
  C     -0.62161852      3.14601971      8.19059833
  C      2.42188521      4.44236057      3.72963941
  H      1.59412814      5.15582108      6.33849566
  H      2.41314409      1.73622530      4.07984064
  H      1.51570900      0.98338424      6.60699688
  H      1.32239793      2.39185236      8.80076767
  H      1.25323243      4.15874999      8.61114312
  H     -1.02294670      3.43914233      9.15667817
  H     -0.96456661      2.14010568      7.95531018
  H     -0.99401911      3.82189622      7.42294066
  H      1.50640911      4.84294659      3.29028432
  H      2.93034049      3.78912989      3.01733926
  H      3.07233556      5.26863694      4.01332814
  N      0.95878134      8.57436132      8.82984091
  C      1.85200643      8.29471607      9.77111457
  N      1.85901764      9.27797066     10.66663625
  C      0.94252037     10.21112563     10.29450337
  C      0.37423285      9.76736275      9.14003022
  C      0.63785050      7.71096840      7.71530421
  C     -0.69234859      7.00514984      7.92730433
  C      2.68438886      9.38386204     11.83717682
  H      2.47395587      7.41013630      9.75035924
  H      0.79322652     11.09138919     10.90420502
  H     -0.38361856     10.20529881      8.52426957
  H      0.60709554      8.30798117      6.80140441
  H      1.44441400      6.97772308      7.64627410
  H     -0.87893040      6.35028787      7.07571773
  H     -1.50889713      7.72032000      8.00885542
  H     -0.65811414      6.40128542      8.83075990
  H      2.40059154     10.30668379     12.35895968
  H      3.73582781      9.42641169     11.55418855
  H      2.52898212      8.52423194     12.48812436
 Cl     -0.82587617      4.90546023      5.23086896
 Cl      4.03365778      1.77719555      2.28695418
 Cl      1.29260931     12.24452221     12.76322110
 Cl      7.31553268      0.28895119      7.99676827
 Cl      3.24442987      5.67782320      8.56831933

