#B3LYP/6-31+G(d) OPT FREQ

62, Energy =    -96.26235737 au

0 1
  N      2.75090167      6.97646222      8.02784459
  C      3.94486199      6.41855341      8.18908451
  N      4.07599085      5.41338953      7.33706875
  C      2.94452533      5.35059263      6.58066359
  C      2.10918349      6.33269473      7.01454899
  C      2.24765443      8.13701398      8.71845556
  C      2.70510716      9.40894727      8.00780684
  C      5.26903098      4.63250070      7.20146617
  H      4.67154241      6.67171500      8.93353524
  H      2.81959318      4.62714934      5.80134352
  H      1.10724464      6.61540550      6.73758571
  H      1.15585071      8.07976036      8.70798733
  H      2.61983305      8.10922252      9.74505099
  H      2.62081400     10.26368898      8.67329351
  H      2.07935720      9.58345429      7.13713034
  H      3.73917941      9.30350738      7.68559681
  H      6.02332850      5.23878091      6.69567015
  H      5.06327458      3.73294302      6.62582857
  H      5.62410933      4.37906765      8.20425484
  N      9.64195395      4.50837966      8.83397643
  C      8.51021755      5.09120773      9.22179555
  N      8.53889480      6.36827275      8.86551584
  C      9.72046174      6.60687363      8.22849325
  C     10.41405990      5.43485285      8.20673447
  C      9.99161088      3.11916679      8.99398744
  C      9.20213626      2.25805713      8.01491644
  C      7.48842298      7.30773497      9.12792600
  H      7.67417626      4.64370582      9.74608356
  H      9.96859168      7.57163517      7.83739074
  H     11.40035417      5.16982662      7.86138336
  H     11.07093905      3.03934663      8.80182228
  H      9.77063728      2.81872390     10.02121625
  H      9.48293786      1.21616201      8.13858469
  H      9.42492269      2.55631291      6.99323469
  H      8.13228252      2.36086247      8.18991060
  H      6.78563880      6.83555442      9.81375442
  H      6.96212354      7.57154381      8.20073969
  H      7.89609963      8.21547124      9.57218256
  N      1.18406501      9.13523244      3.60736537
  C      0.96221580      9.72696799      2.43608954
  N     -0.28629504     10.17808762      2.41108045
  C     -0.87626497      9.86692702      3.60102137
  C      0.04788279      9.21400050      4.35532769
  C      2.44023164      8.56903363      4.04759708
  C      3.48293210      9.65424787      4.27355807
  C     -0.88781254     10.86754181      1.30491060
  H      1.63004991      9.84184940      1.58821885
  H     -1.88994227     10.12266863      3.82904180
  H     -0.06077599      8.78199070      5.34381391
  H      2.25446622      8.02759542      4.97656668
  H      2.79573772      7.86519294      3.29168172
  H      4.35029363      9.21239572      4.75863027
  H      3.08915197     10.42918063      4.92700697
  H      3.78714506     10.10389542      3.33213473
  H     -1.16237412     11.88119363      1.59750947
  H     -1.77962854     10.33690557      0.97216454
  H     -0.14706722     10.90092639      0.49446388
 Cl      1.78237877     10.53552507     -0.50392819
 Cl     -0.82945169      7.83078896      7.12262679
 Cl      5.62161311      7.94775071      6.45020892
 Cl     13.15641416      3.68524378      8.17203230
 Cl      5.63226613      4.67158385     10.54311063

