#B3LYP/6-31+G(d) OPT FREQ

62, Energy =    -96.26205047 au

0 1
  N     10.33209665      6.92486284      1.67242923
  C      9.38116169      6.11804956      2.16090900
  N      9.01172734      6.56572758      3.36011240
  C      9.68498156      7.72230357      3.62009509
  C     10.50800474      7.95187089      2.56905334
  C     10.90559591      6.86566537      0.35302838
  C     10.20261909      7.85012803     -0.57875877
  C      7.98969128      6.00918519      4.19719837
  H      9.08915401      5.18572660      1.72640719
  H      9.51658346      8.24656316      4.54780095
  H     11.21131435      8.73731685      2.38904502
  H     11.97448027      7.09295070      0.42727309
  H     10.78260313      5.84811910     -0.02308759
  H     10.53501744      7.70589574     -1.60209987
  H     10.40986781      8.87561822     -0.27961850
  H      9.12894092      7.67995847     -0.52210086
  H      7.94409002      6.60832118      5.11052107
  H      8.22069166      4.97195470      4.44155679
  H      7.03585194      6.04469642      3.66961023
  N      2.11595612      8.25774829      1.44540626
  C      1.51705792      9.12785260      2.25155883
  N      0.20062146      8.97761097      2.14843671
  C     -0.05559533      7.98365654      1.25582776
  C      1.14903911      7.52907646      0.81449709
  C      3.54444628      8.08761313      1.32431950
  C      4.00583215      6.82167235      2.03637831
  C     -0.81766553      9.70783735      2.85098245
  H      2.05925890      9.83923993      2.85919109
  H     -1.08162418      7.71663708      1.03319222
  H      1.38627928      6.75764308      0.11073997
  H      3.81019212      8.03626967      0.26609309
  H      4.01041979      8.96830063      1.77493475
  H      5.06262066      6.67067761      1.83015372
  H      3.45955609      5.95141590      1.67732221
  H      3.85289100      6.91102310      3.10971629
  H     -1.78977405      9.33210598      2.50257974
  H     -0.73198524     10.77353547      2.64252439
  H     -0.72184300      9.54836361      3.92432404
  N      7.24243069     10.07741487      3.27268389
  C      6.32899864      9.39956440      3.95766856
  N      6.27754800      9.85653414      5.20057631
  C      7.17006985     10.87100429      5.31602598
  C      7.77283613     11.01754292      4.10637511
  C      7.52395479      9.94079344      1.86538054
  C      6.69348388     10.93452993      1.05701872
  C      5.44960454      9.33695645      6.24748682
  H      5.74630585      8.58978246      3.56895019
  H      7.32399601     11.39607122      6.23560081
  H      8.52958832     11.70440911      3.79007962
  H      8.59287889     10.11330570      1.71393361
  H      7.28746412      8.91669778      1.56105059
  H      6.72100616     10.66947101      0.00402884
  H      7.06696868     11.94987284      1.17873390
  H      5.66252937     10.90755434      1.40174722
  H      4.50203578      9.00442376      5.82388983
  H      5.26581719     10.11805708      6.98331221
  H      5.97572059      8.50678266      6.72814092
 Cl     -3.23105659      8.07109762      1.34910678
 Cl     25.23785862    -30.18577117      4.47642533
 Cl      4.00042187     10.80982593      3.37060095
 Cl      8.54648931      8.33097523      6.56786731
 Cl      7.25475015      6.72342065      0.78974989

