62
Energy =    -96.25710197 au
  N      5.50100370      0.98181542      4.34192375
  C      5.71172978      2.22992787      3.92397195
  N      5.60421791      2.26249101      2.59522030
  C      5.31261370      0.99641203      2.16533391
  C      5.24888793      0.19234183      3.25888992
  C      5.52994129      0.52582761      5.71080996
  C      4.21521798     -0.13879544      6.10078418
  C      5.78069328      3.43657079      1.78928000
  H      5.95135701      3.10220293      4.51284522
  H      5.17700775      0.76146106      1.13091426
  H      5.03107836     -0.87185361      3.37066345
  H      6.33601469     -0.20636542      5.81314113
  H      5.74756342      1.39294525      6.34059026
  H      4.24805257     -0.41700128      7.15125649
  H      4.07547806     -1.04323073      5.50666087
  H      3.37427727      0.53214796      5.93829119
  H      4.84738308      3.70129489      1.29027713
  H      6.54885499      3.26430383      1.03554023
  H      6.08689907      4.25312820      2.44804553
  N      2.73099287      5.71200218      4.08991638
  C      1.48748069      6.06305280      3.74890940
  N      1.54176121      6.78830591      2.62185449
  C      2.86607875      7.00052229      2.32205564
  C      3.60363927      6.32271742      3.23203988
  C      3.11198811      4.93851299      5.24410675
  C      2.64522339      3.49164948      5.12679785
  C      0.41408663      7.48464359      2.07339851
  H      0.59551576      5.61686562      4.13538796
  H      3.16393006      7.60195089      1.48860303
  H      4.66365375      6.21006545      3.36460832
  H      4.20235067      4.98654985      5.30952215
  H      2.67303759      5.40771324      6.12867642
  H      3.00245676      2.92926916      5.98434103
  H      3.04111811      3.03440612      4.22212931
  H      1.55900302      3.42916440      5.10375182
  H      0.73772479      8.11787108      1.25108154
  H     -0.01916213      8.10054603      2.86682319
  H     -0.33838570      6.77868267      1.71907285
  N      6.38609794      7.94558606      6.16719229
  C      5.93759254      8.71518784      5.17761784
  N      4.60498396      8.76046971      5.23402602
  C      4.20307168      8.07945757      6.34640975
  C      5.31437588      7.56599931      6.92727219
  C      7.76723721      7.68178101      6.47077277
  C      8.27549227      8.66136632      7.52256149
  C      3.77212469      9.60183952      4.42734420
  H      6.52960892      9.06532067      4.35910261
  H      3.16671707      8.00411553      6.60566592
  H      5.42786574      6.95333980      7.79735397
  H      7.85161998      6.64543459      6.80952457
  H      8.33686902      7.79194868      5.54600076
  H      9.35274537      8.57567789      7.63022290
  H      7.80572684      8.47242208      8.48481901
  H      8.02305531      9.67153834      7.20735527
  H      3.96644365     10.64292509      4.69935183
  H      2.72937892      9.34754741      4.61416186
  H      4.00993787      9.46187287      3.37275543
 Cl      6.41426482     11.10571093      5.91777563
 Cl      4.49653567     -2.78806298      3.97687346
 Cl     13.68984438     23.06562939    -32.46598498
 Cl      6.47618541      5.29379766      4.52306670
 Cl      0.84052176      7.81579455      5.34653031
