#B3LYP/6-31+G(d) OPT FREQ

62, Energy =    -96.26364702 au

0 1
  N      7.57054890      6.17840651      2.33236097
  C      7.62569595      7.40299376      1.81408311
  N      8.78902691      7.54740058      1.18682902
  C      9.49980009      6.39312327      1.30906916
  C      8.73140202      5.53067321      2.03064935
  C      6.47327492      5.61489852      3.08729058
  C      5.14513049      5.82674373      2.37535454
  C      9.24115263      8.71804127      0.48875242
  H      6.85262448      8.15902145      1.89210760
  H     10.47635807      6.30905206      0.86419769
  H      8.90979241      4.53041228      2.37469373
  H      6.70087801      4.55564329      3.23795465
  H      6.44572959      6.09569450      4.06916809
  H      4.33756389      5.38202734      2.95029208
  H      5.16203262      5.36457140      1.39055240
  H      4.93805001      6.88643790      2.25043198
  H      8.54883987      8.96412384     -0.31598843
  H     10.23624623      8.50624911      0.07731917
  H      9.29325025      9.56459918      1.17317077
  N      4.55186838      2.59664277      5.00468642
  C      3.31380665      2.71125941      5.47882440
  N      3.32815283      3.50005235      6.54728117
  C      4.60849519      3.92751921      6.74251356
  C      5.37747788      3.36175868      5.77472689
  C      4.96368639      1.77849529      3.88778819
  C      4.37472686      2.27785235      2.57027125
  C      2.16970142      3.94497729      7.26443195
  H      2.44988289      2.21051795      5.09515447
  H      4.84733893      4.56393826      7.56983953
  H      6.42885321      3.41428707      5.54878258
  H      6.05817238      1.81280559      3.85598570
  H      4.63545983      0.75188220      4.08445355
  H      4.29972757      1.45968159      1.85866410
  H      5.00905598      3.04748240      2.14532794
  H      3.38674292      2.70293407      2.73013844
  H      1.53439846      4.49569126      6.56697406
  H      2.48423907      4.58814047      8.08752943
  H      1.61326559      3.09233020      7.65514188
  N      3.99527731      7.67140308      5.60183078
  C      4.34108319      7.20845883      6.79763257
  N      5.64639891      7.38883497      6.97697522
  C      6.14425293      7.99193294      5.86096748
  C      5.10772537      8.17107890      4.99633642
  C      2.66829220      7.59701077      5.03556691
  C      2.33903994      8.82233851      4.19862047
  C      6.38704031      6.98389537      8.13821292
  H      3.70179909      6.77344272      7.55221253
  H      7.17885455      8.24602165      5.75680466
  H      5.11071596      8.62701154      4.01397102
  H      2.59097579      6.68646697      4.42588289
  H      1.96618889      7.49366175      5.86729483
  H      1.33737588      8.71555437      3.79236368
  H      3.03219014      8.93173093      3.36888485
  H      2.37869020      9.72636959      4.80472922
  H      6.94162287      7.82963342      8.54471860
  H      7.08795004      6.19022608      7.87593326
  H      5.67583239      6.61461236      8.88297473
 Cl      1.87815012      4.48405853      3.97203255
 Cl      3.62127295      5.91690440      9.64813958
 Cl      5.22031886      9.60470120      2.09706993
 Cl     12.15580377      7.49674670     -0.45785939
 Cl      8.16628308      2.78079004      4.13859896

