#B3LYP/6-31+G(d) OPT FREQ

62, Energy =    -96.26150378 au

0 1
  N      3.86866230      1.93279603      0.98412617
  C      2.70787038      1.96760468      1.63155806
  N      2.88891143      1.53524516      2.87394860
  C      4.19499059      1.17226746      3.01292027
  C      4.81100595      1.42187125      1.83061762
  C      4.08715509      2.41572494     -0.35138506
  C      4.59635444      3.85444580     -0.31161047
  C      1.86070980      1.50763834      3.86940426
  H      1.79791825      2.37911748      1.25129250
  H      4.58309733      0.77295164      3.92751323
  H      5.82719496      1.27520264      1.52844946
  H      4.80096939      1.75413750     -0.85235768
  H      3.13152791      2.35598611     -0.87545093
  H      4.54825582      4.30424229     -1.30023586
  H      5.62561161      3.88971627      0.04259207
  H      3.98015659      4.43072560      0.37719737
  H      2.24647185      1.06591259      4.78568439
  H      1.02145483      0.91951819      3.49454233
  H      1.53632413      2.53382668      4.05792905
  N      9.53474209      5.45888191      8.74432490
  C      9.33186205      6.01611978      9.93423707
  N      8.50456995      7.04283988      9.78392042
  C      8.16540534      7.15253400      8.46726875
  C      8.81417651      6.14966190      7.81540961
  C     10.34293467      4.29858156      8.46285497
  C      9.70051615      3.04380661      9.04436129
  C      8.05904689      7.88480378     10.85696101
  H      9.73246765      5.71663256     10.90146632
  H      7.51680669      7.93717555      8.10663461
  H      8.85878682      5.86412774      6.78193931
  H     10.42926022      4.22196536      7.37417857
  H     11.33406006      4.44516179      8.90057630
  H     10.30814089      2.17567537      8.80492567
  H      8.70982342      2.90024378      8.61994540
  H      9.61423647      3.12922723     10.12534727
  H      8.47982019      7.49865422     11.78735914
  H      6.97020262      7.88080095     10.90364903
  H      8.38994339      8.90965317     10.68817848
  N      7.07232408      7.37215482      4.86157869
  C      7.20649873      6.09418807      4.52476903
  N      5.99810228      5.55486772      4.40004929
  C      5.06802732      6.51574016      4.65839992
  C      5.74522001      7.66064023      4.94739318
  C      8.14003347      8.32223340      5.03908711
  C      8.35451176      9.12638788      3.76057546
  C      5.70260464      4.18799567      4.08179147
  H      8.15221642      5.56544138      4.44709853
  H      4.02035615      6.31010819      4.56973748
  H      5.41133091      8.62470000      5.27414100
  H      7.84876481      8.98548802      5.86356738
  H      9.04612719      7.77229083      5.29472476
  H      9.15204161      9.84708807      3.91684066
  H      7.44774586      9.66542166      3.49593071
  H      8.63061503      8.47050108      2.93626565
  H      4.77567438      4.15689628      3.49659485
  H      5.55964520      3.61442811      4.99946554
  H      6.52853197      3.75546336      3.52189385
 Cl      9.89776444      5.76363904     13.01178472
 Cl     10.03007446      4.69803267      5.00451187
 Cl      1.66966851     -0.19950207      0.65229269
 Cl      2.76561784      4.64751745      2.63473510
 Cl      6.41719808      9.79163062      7.43307351

