62
Energy =    -96.29294689 au
  N      5.24302973      3.32074827      4.17462056
  C      5.54908177      2.83535751      2.97751957
  N      6.37631772      1.80708414      3.13094869
  C      6.59795313      1.62895193      4.46367929
  C      5.88048498      2.58021419      5.12040716
  C      4.39968956      4.46269328      4.41857570
  C      2.97547055      4.02746289      4.74516722
  C      6.99617589      1.05179842      2.08152322
  H      5.26400006      3.31601118      2.04458534
  H      7.26960074      0.87819373      4.82372894
  H      5.82392806      2.83336016      6.15948873
  H      4.83352109      5.01252532      5.25911255
  H      4.41153067      5.07422399      3.51418139
  H      2.36334319      4.90413298      4.93489020
  H      2.96191050      3.39707718      5.63195375
  H      2.54523658      3.47729611      3.91056482
  H      6.58652992      0.04105128      2.04215419
  H      8.06982673      0.99025065      2.29070433
  H      6.82463916      1.55290793      1.13212339
  N      9.90525178      4.37033109      5.80132280
  C     10.73282167      4.23357821      4.77145736
  N     11.06739275      5.43802531      4.32201441
  C     10.43553504      6.37069958      5.08622544
  C      9.70834297      5.69803688      6.02010766
  C      9.30018039      3.28887042      6.53509688
  C     10.13428532      2.92946252      7.75984816
  C     11.90313667      5.73614632      3.19756322
  H     10.98626850      3.28439969      4.32898661
  H     10.50940427      7.41458562      4.86147283
  H      9.02587031      6.04532808      6.76952892
  H      8.30072345      3.61712022      6.83545221
  H      9.22733656      2.43735541      5.85573860
  H      9.65304909      2.11970881      8.30006983
  H     10.22296463      3.78520306      8.42585892
  H     11.13040788      2.60586177      7.46349289
  H     12.85543473      6.15238854      3.52973499
  H     11.38122700      6.48665690      2.58686716
  H     12.07967408      4.82921494      2.62576835
  N      8.20586587      5.01113417      1.63412508
  C      7.58854710      6.16650774      1.84745796
  N      7.25738423      6.25272195      3.12585555
  C      7.67932364      5.12225591      3.75505461
  C      8.27953151      4.34029384      2.81986978
  C      8.66502845      4.54864488      0.35072782
  C     10.01545800      5.16256080     -0.00692383
  C      6.64501168      7.37530245      3.77159080
  H      7.38025172      6.90404048      1.10080739
  H      7.48157338      4.97042513      4.79913088
  H      8.75738175      3.38290997      2.91248885
  H      8.73531265      3.45950132      0.39170948
  H      7.90423059      4.82619126     -0.38300228
  H     10.20069964      5.07690281     -1.07420361
  H     10.81401410      4.65603978      0.52805717
  H     10.02677667      6.21279489      0.27523353
  H      7.32136687      8.22997086      3.70723829
  H      6.46928944      7.12172648      4.81518537
  H      5.70358165      7.62209787      3.28082926
 Cl      6.53482743      5.20425676      6.97322967
 Cl    -31.07913319     29.88502810     29.71655997
 Cl      9.93195333      1.37586827      3.58634974
 Cl      9.78278879      7.96972798      2.23676718
 Cl      5.14298624      5.02135546      0.81780192
