#B3LYP/6-31+G(d) OPT FREQ

62, Energy =    -96.25805788 au

0 1
  N      3.99708717     10.90635303      9.26996190
  C      4.75250451      9.96986409      9.83139449
  N      3.96608825      9.01737864     10.32131717
  C      2.66903653      9.35932224     10.05777993
  C      2.69125808     10.54762944      9.39430239
  C      4.45195999     12.09716448      8.59260177
  C      5.11057755     11.74012680      7.26528903
  C      4.42931571      7.84971940     11.01646775
  H      5.82931564      9.94112830      9.91202324
  H      1.84512961      8.74478913     10.35729173
  H      1.91946135     11.21190506      9.01870655
  H      3.56073989     12.71943903      8.42479259
  H      5.16220485     12.61934733      9.23741382
  H      5.45329622     12.64749495      6.77778144
  H      4.39092581     11.25174875      6.61356606
  H      5.96207976     11.07802431      7.41675084
  H      5.52064373      7.89389047     11.05296009
  H      4.11370639      6.94598565     10.49478314
  H      4.03089194      7.83180995     12.03139316
  N     10.15117732      1.05579520      6.65011238
  C      9.29600560      2.06526903      6.49474715
  N      8.06636964      1.63785234      6.76883717
  C      8.13928755      0.32789260      7.12860295
  C      9.44433812     -0.04276183      7.04506307
  C     11.58342650      1.17060944      6.53600984
  C     12.22852614      1.15512437      7.91832426
  C      6.89024837      2.44723303      6.87886476
  H      9.59766212      3.04427167      6.15003619
  H      7.27856294     -0.22752582      7.43565117
  H      9.91021469     -0.98377891      7.25034587
  H     11.96133532      0.34323811      5.92856671
  H     11.78881248      2.12119038      6.03250064
  H     13.30238001      1.28740103      7.82350359
  H     12.03188034      0.21550250      8.42994907
  H     11.82750977      1.96451116      8.52247500
  H      6.60897083      2.45780478      7.93769416
  H      6.07725141      2.02338085      6.28899407
  H      7.11168407      3.45596879      6.54040483
  N      8.63276157      5.33090644      9.86294799
  C      9.05641751      6.42001108      9.23111012
  N      9.97230297      6.06752801      8.33576658
  C     10.13583400      4.71597316      8.39987437
  C      9.28714187      4.24833676      9.35523754
  C      7.62995460      5.31585685     10.89966325
  C      6.37729235      4.58727323     10.42928480
  C     10.67875718      6.92456977      7.42675190
  H      8.69847185      7.41672709      9.44995368
  H     10.80968188      4.22437762      7.72552508
  H      9.05102674      3.24359088      9.66629117
  H      8.04142871      4.80333035     11.77290507
  H      7.41768289      6.35747948     11.15328418
  H      5.62378085      4.61941641     11.21050463
  H      6.61341608      3.54568848     10.21688806
  H      5.97876590      5.05805042      9.53333191
  H     10.94191198      6.33510493      6.54409336
  H     11.59390319      7.29990414      7.88824046
  H     10.05097067      7.76757481      7.14607486
 Cl    -17.26072453    -23.06581750     -1.03261195
 Cl      1.34673295     13.15543033      8.26338367
 Cl      7.62781713      8.85608230     10.72114805
 Cl      7.73674394      1.39129128      9.82746544
 Cl     11.22344455      4.31652514      5.32337362

