#B3LYP/6-31+G(d) OPT FREQ

62, Energy =    -96.27338654 au

0 1
  N      1.12368586      7.51173153      2.91851738
  C      2.08224890      8.26909353      3.44095175
  N      3.26533979      7.75339549      3.12718988
  C      3.05638764      6.61827737      2.40012141
  C      1.71187441      6.47135787      2.26105771
  C     -0.29693297      7.71474054      3.05269027
  C     -0.78034144      8.83083919      2.13362144
  C      4.53493204      8.21738022      3.60763085
  H      1.92853644      9.16925014      3.99956873
  H      3.89087962      6.03619795      2.05503876
  H      1.10395986      5.72465854      1.78507371
  H     -0.78188913      6.76816618      2.78469239
  H     -0.50980316      7.95371110      4.09736872
  H     -1.85482424      8.94749328      2.23959241
  H     -0.56354938      8.57806763      1.09860571
  H     -0.29897235      9.77791414      2.37438938
  H      4.71718610      9.24293509      3.28598556
  H      5.31279135      7.55987309      3.21578585
  H      4.53001700      8.17865347      4.69828905
  N      1.00937452      3.32233483      5.00959615
  C      1.13939030      4.41803245      5.75530662
  N      0.87072789      4.12407943      7.02124176
  C      0.55881624      2.80775369      7.09778497
  C      0.64188539      2.30275866      5.83465379
  C      1.20665936      3.27427702      3.57970082
  C      1.30510003      1.85731172      3.04144974
  C      0.97247028      5.01631082      8.13737276
  H      1.42477929      5.40013398      5.41423177
  H      0.35796532      2.32427035      8.03005155
  H      0.46721737      1.30730963      5.48838302
  H      0.35955751      3.78288227      3.07922994
  H      2.11388527      3.83832076      3.34870367
  H      1.54890305      1.91092950      1.98433407
  H      0.35106538      1.34462001      3.13207701
  H      2.07294064      1.28189893      3.55579280
  H      1.35004697      5.97606968      7.79109779
  H      1.66428872      4.56561043      8.85501745
  H     -0.00153461      5.14709539      8.60827253
  N      4.86632962      2.93692823      4.07886401
  C      4.96257883      4.13621467      4.65324582
  N      4.50417250      4.05457437      5.89986057
  C      4.10615628      2.77460469      6.13282592
  C      4.33596624      2.07137550      4.99217125
  C      5.29576944      2.61603585      2.73956351
  C      6.49928996      1.68071154      2.76170728
  C      4.43773316      5.10573259      6.87518337
  H      5.36800443      4.99716001      4.14019583
  H      3.69590116      2.48426307      7.09204624
  H      4.17409883      1.03603154      4.77569926
  H      4.46248790      2.15501665      2.20209521
  H      5.56898851      3.56109548      2.25717047
  H      6.80139843      1.45664539      1.74292306
  H      6.26972372      0.74727594      3.27273451
  H      7.33156778      2.16312200      3.26747070
  H      4.09337860      4.67238425      7.81327335
  H      3.74014750      5.88728913      6.55901671
  H      5.42125097      5.55312060      7.01237893
 Cl     32.76195577    -12.30924834      5.24223994
 Cl      2.14144651      7.49294832      6.03380145
 Cl     -1.13844659      4.70293024      1.87510401
 Cl      2.92118316      2.57683783      9.10664105
 Cl      6.30020281      5.72479205      2.20413106

