#B3LYP/6-31+G(d) OPT FREQ

62, Energy =    -96.26576071 au

0 1
  N      8.51515405      8.07714737      5.81164171
  C      7.91367833      8.99479871      6.56039777
  N      6.75382534      9.31360034      5.99650114
  C      6.60132745      8.57606459      4.86248606
  C      7.70960182      7.79611939      4.74605355
  C      9.78892773      7.47878385      6.12706470
  C      9.60259770      6.07436196      6.68991633
  C      5.79188992     10.26375949      6.47894627
  H      8.39450651      9.42737338      7.43583684
  H      5.74018874      8.72071622      4.23026914
  H      7.97865917      7.08253857      3.99520698
  H     10.39684180      7.44959635      5.21910762
  H     10.26247212      8.12746514      6.87587235
  H     10.57345334      5.63612444      6.90135364
  H      9.07345125      5.43385670      5.98628939
  H      9.03795092      6.12087513      7.61716981
  H      5.24190692      9.84844797      7.32431303
  H      5.09037132     10.47405798      5.66450668
  H      6.29499579     11.17493034      6.79655431
  N      1.95815727      6.96752455      3.93248511
  C      1.00399296      6.04197186      3.91864276
  N      0.47221134      5.99556373      2.70224558
  C      1.09963631      6.91756665      1.91940763
  C      2.03877696      7.52622451      2.69455053
  C      2.80608728      7.28271854      5.05598983
  C      3.76839705      6.13170085      5.32735420
  C     -0.60168586      5.14177880      2.28117546
  H      0.78708480      5.35809409      4.73374616
  H      0.86633439      7.01034311      0.87764741
  H      2.73022447      8.32079253      2.49078678
  H      3.33473078      8.20997911      4.81195525
  H      2.17445988      7.44390953      5.93305973
  H      4.42096190      6.38441657      6.15823648
  H      4.37987532      5.93309043      4.45047548
  H      3.20712250      5.23429897      5.58047037
  H     -0.59370662      4.23271496      2.87759443
  H     -0.46253987      4.90509420      1.22058952
  H     -1.55949773      5.65023094      2.40796764
  N      3.14761902      1.72778909      2.87058931
  C      3.53900958      1.52701598      1.61776872
  N      2.99105029      2.46197149      0.84797217
  C      2.23805185      3.28306781      1.63292666
  C      2.33090081      2.82013236      2.90878088
  C      3.53926026      0.90661662      3.99081293
  C      4.15018059      1.75448102      5.09879831
  C      3.13425142      2.61708025     -0.57194728
  H      4.19289274      0.70610000      1.32606571
  H      1.69418764      4.09202742      1.18472545
  H      1.88470631      3.16468130      3.82649910
  H      2.65193211      0.39330457      4.37307007
  H      4.24643484      0.16482205      3.60669564
  H      4.50603721      1.10817580      5.89612061
  H      3.40754388      2.43477932      5.50953446
  H      4.98962470      2.33152330      4.71767420
  H      4.11071886      3.04042667     -0.81214715
  H      2.35248347      3.29811897     -0.91813611
  H      3.03968271      1.65095729     -1.06471481
 Cl      4.01641677     10.14603013      3.67337706
 Cl      5.35056227     -1.03167563      1.64072951
 Cl     10.22267237      9.78907308      8.48651913
 Cl      1.09192647      3.64136485      5.95763258
 Cl      0.59803924      4.94876347     -0.79689951

