62
Energy =    -96.26060364 au
  N      3.00348320      6.51806738      4.07876868
  C      3.77579974      6.28194036      3.01995137
  N      4.42950558      7.40077596      2.70056605
  C      4.08071731      8.36345057      3.60613558
  C      3.18395949      7.81286556      4.46364432
  C      2.13087628      5.58593742      4.75543774
  C      2.74327002      4.19197387      4.81388375
  C      5.46153435      7.48007996      1.70861517
  H      3.85952997      5.35516044      2.49373784
  H      4.49473647      9.34980784      3.57361435
  H      2.67074932      8.19959687      5.33003275
  H      1.95186268      6.00275425      5.75321603
  H      1.16855859      5.56003921      4.23131326
  H      2.31983915      3.62828321      5.63936922
  H      3.81885868      4.26447933      4.95106782
  H      2.56125641      3.63942664      3.89446186
  H      6.20309413      6.70946012      1.94566311
  H      5.92561046      8.46276756      1.74031449
  H      5.05713763      7.29469162      0.71245109
  N      7.91296243      0.34622422     10.70163392
  C      7.41381016      1.46482505     11.22589437
  N      7.79805366      2.50090326     10.48338748
  C      8.63366478      2.03826191      9.50863414
  C      8.70307861      0.69139653      9.64074197
  C      7.65616406     -0.98256007     11.18647756
  C      6.50136536     -1.61811034     10.41573422
  C      7.43342868      3.85668566     10.75878266
  H      6.67100128      1.50962657     11.99352999
  H      9.11095333      2.69156066      8.80772766
  H      9.24326359     -0.03838627      9.07372707
  H      8.57053597     -1.57489513     11.08397445
  H      7.41447117     -0.89769979     12.24808777
  H      6.18004732     -2.53689774     10.89876609
  H      6.79923114     -1.84093883      9.39309812
  H      5.66474686     -0.92435435     10.37813650
  H      7.90634883      4.52009604     10.03792253
  H      7.76365369      4.10816130     11.76877975
  H      6.34785455      3.95045463     10.69595955
  N      3.95196069      5.07485399      8.05106694
  C      4.84927119      4.10642369      7.89699173
  N      5.82162197      4.54928206      7.10836037
  C      5.53432634      5.83111598      6.74387273
  C      4.35870348      6.16296184      7.34285536
  C      2.75542009      4.99646031      8.85398681
  C      3.10734570      4.79789883     10.32327703
  C      6.95300926      3.79158530      6.65960248
  H      4.82080479      3.13345924      8.38543944
  H      6.15468002      6.37442075      6.06245628
  H      3.75301670      7.05042534      7.30293985
  H      2.19529352      5.92083030      8.68785194
  H      2.15795311      4.14882697      8.50806112
  H      2.19902832      4.78402407     10.91835336
  H      3.74161422      5.60817595     10.67694882
  H      3.62522813      3.85005254     10.45786439
  H      7.87691704      4.24013963      7.02749585
  H      6.97102918      3.81037795      5.56612266
  H      6.86636639      2.77021269      7.02240854
 Cl      6.12435303     -4.02641585    -27.82686542
 Cl      6.15774301      5.01284206      3.66957664
 Cl      9.00674824      1.77470605     13.14567517
 Cl      1.54291707      7.83845835      7.24582474
 Cl      4.90598900      1.55409439      9.74720008
