#B3LYP/6-31+G(d) OPT FREQ

62, Energy =    -96.26826786 au

0 1
  N      8.57383575      7.16333093      3.35017570
  C      7.48838645      7.78925532      2.90210206
  N      6.60627103      7.88869949      3.89443174
  C      7.14601072      7.30603556      5.00497651
  C      8.37845859      6.84747410      4.65929838
  C      9.73659866      6.80476519      2.58240828
  C     10.95773916      7.60920421      3.01353715
  C      5.31780217      8.50736979      3.77617432
  H      7.26918033      8.13429751      1.89770365
  H      6.61991241      7.24321390      5.93477385
  H      9.09724277      6.29662828      5.22744285
  H      9.89518349      5.73160539      2.73967270
  H      9.51258454      6.98869325      1.53127571
  H     11.81346628      7.32096304      2.40976896
  H     11.19472368      7.42157147      4.05785963
  H     10.78046222      8.67486111      2.87967708
  H      5.28907000      9.44078612      4.34092250
  H      4.54574395      7.83831100      4.15264244
  H      5.14946798      8.71720838      2.71436992
  N      4.13648118      6.04497356      0.89629631
  C      5.19310389      5.86932313      0.11306867
  N      6.19635637      5.38889661      0.83695640
  C      5.75842851      5.20427258      2.11322076
  C      4.46547888      5.61226689      2.15101247
  C      2.84793440      6.52516030      0.47408293
  C      1.90810599      5.35619257      0.19645283
  C      7.47340890      4.98276105      0.33191321
  H      5.25351949      6.16162773     -0.91398719
  H      6.41880709      4.81343075      2.86591726
  H      3.75776566      5.62407014      2.95400174
  H      2.45069825      7.18162684      1.25462451
  H      2.99959696      7.11527111     -0.43110744
  H      1.00322064      5.70477762     -0.29323927
  H      1.63836944      4.84992230      1.12050102
  H      2.41578392      4.64308770     -0.45011154
  H      8.06648736      4.59962528      1.16068282
  H      7.97308902      5.82767402     -0.14233454
  H      7.31792218      4.19569074     -0.40856716
  N      5.53701644      1.68589448      1.89934500
  C      4.93596343      1.13952516      0.84530775
  N      5.83586410      0.91915113     -0.10170047
  C      7.05282188      1.30824558      0.36908289
  C      6.87068838      1.78387797      1.62737986
  C      4.92441184      1.95242601      3.17455538
  C      4.94259530      0.69085049      4.03404146
  C      5.53598500      0.32352639     -1.36748009
  H      3.88344208      0.98649472      0.73782957
  H      7.94423633      1.22123147     -0.21779527
  H      7.56150607      2.21111354      2.32778578
  H      5.48154777      2.75881284      3.65687555
  H      3.89687539      2.27861263      2.99567550
  H      4.30858077      0.81568586      4.90770449
  H      5.95677944      0.47518595      4.36014650
  H      4.58636842     -0.15184429      3.44320730
  H      4.96788406     -0.59010059     -1.18176972
  H      6.46014743      0.09119067     -1.89234590
  H      4.93897142      1.02134891     -1.95795054
 Cl      8.45830689      4.06171820      3.73555152
 Cl      4.52466442     -1.46741739      1.34475104
 Cl      4.61168965      3.57105990     -1.06895565
 Cl      5.75493361      8.75587476      0.49593543
 Cl    -25.75499741     19.99292010     16.57870355

