62
Energy =    -96.29178387 au
  N      5.17329540      4.49441331      3.40814280
  C      5.59754842      5.63796349      3.93296766
  N      5.62657889      5.51955660      5.25827358
  C      5.20205291      4.26827016      5.58750912
  C      4.91786271      3.62412388      4.42245523
  C      5.00363565      4.24611033      1.99895003
  C      3.53044820      4.28772397      1.61103661
  C      5.99824285      6.53427730      6.20346945
  H      5.95617962      6.46441375      3.33507434
  H      5.16662235      3.95667607      6.61513340
  H      4.60066540      2.61897973      4.24025888
  H      5.56549678      5.02054149      1.47025887
  H      5.43516320      3.26470664      1.78527501
  H      3.43157198      4.08870819      0.54793662
  H      3.10878630      5.26903205      1.81968494
  H      2.96257865      3.53784300      2.15982167
  H      6.07106566      6.06439607      7.19041253
  H      5.23988438      7.31750878      6.23396964
  H      6.95091043      6.98054949      5.92501658
  N      9.59275227      3.79859941      7.19528007
  C     10.41961190      3.43202038      6.21838913
  N      9.72675704      2.77867161      5.29405670
  C      8.42569210      2.71581906      5.69263708
  C      8.33768104      3.35706550      6.88989265
  C      9.95273978      4.55604206      8.36868076
  C      9.19604822      5.87770925      8.41829053
  C     10.27179002      2.24300095      4.08007672
  H     11.45000385      3.72565219      6.09098750
  H      7.67799385      2.25152429      5.07850939
  H      7.49587484      3.55682281      7.53508233
  H      9.70583978      3.96552222      9.25587573
  H     11.03190022      4.72313383      8.33326546
  H      9.53505523      6.45936828      9.27081989
  H      8.13016279      5.68738252      8.53011495
  H      9.37247208      6.44921219      7.51022798
  H     11.04077233      2.92665415      3.71672785
  H      9.46501269      2.12404238      3.35651340
  H     10.72540399      1.26818594      4.26753706
  N      9.19063697      4.34811898      1.05621860
  C      8.71579209      4.66264179      2.25507735
  N      9.58048927      5.45382178      2.87350624
  C     10.62151536      5.69140366      2.03192515
  C     10.37893822      4.99659798      0.88976059
  C      8.50419829      3.53709645      0.08300506
  C      7.75731060      4.42090560     -0.91079361
  C      9.44654036      6.02170375      4.18103997
  H      7.82045899      4.24150270      2.66942507
  H     11.45759320      6.29091679      2.32524555
  H     10.95353103      4.91577066     -0.00970059
  H      9.23928348      2.90867421     -0.42774355
  H      7.81188311      2.89716045      0.63604771
  H      7.05225493      3.82933112     -1.48722635
  H      8.45031599      4.90914892     -1.59313531
  H      7.21622078      5.19198584     -0.36762291
  H      9.14714664      7.06769627      4.09413595
  H     10.41927657      5.94567748      4.67620993
  H      8.68838970      5.47366085      4.73643184
 Cl      5.96850566      4.53528778      8.84110032
 Cl    -57.33204036     43.27816500     49.15476727
 Cl      7.13475438      1.84729531      2.73468838
 Cl     12.52728729      4.83796646      4.48260420
 Cl      7.15314061      6.93339938      1.53142538
