62
Energy =    -96.26795635 au
  N      6.15508482      2.41115302      2.80886350
  C      6.59704209      3.42616027      2.07308980
  N      7.65969175      3.95343033      2.66799657
  C      7.90103984      3.25565153      3.81334203
  C      6.95450002      2.28431732      3.90602688
  C      5.01756590      1.58479410      2.48818501
  C      5.41180272      0.11496109      2.41767588
  C      8.37724810      5.11804430      2.24066870
  H      6.16847019      3.75110854      1.12763554
  H      8.69408619      3.51669126      4.48068237
  H      6.79688674      1.51515589      4.64686295
  H      4.25915175      1.71845063      3.26511428
  H      4.62125572      1.93887327      1.53338619
  H      4.55181966     -0.47981763      2.12222356
  H      5.75106647     -0.22713791      3.39405953
  H      6.20637078     -0.03167482      1.68939711
  H      9.42183733      4.87031334      2.04696627
  H      8.32514237      5.85637857      3.04643198
  H      7.91443241      5.51027250      1.33850697
  N      4.78010134      7.96160778      0.93983184
  C      5.00861074      8.83931837      1.90930837
  N      5.37002470      8.17897266      3.00472885
  C      5.37095307      6.84426079      2.72311864
  C      5.00169534      6.70549331      1.42131753
  C      4.40330493      8.30826098     -0.40875553
  C      5.45380390      7.82109618     -1.39921210
  C      5.70581144      8.74287840      4.28102751
  H      4.88667651      9.91239934      1.77283244
  H      5.67036397      6.12858917      3.46375149
  H      4.91057116      5.82974750      0.80066134
  H      3.44085813      7.83983648     -0.63351416
  H      4.29633423      9.39742126     -0.43797709
  H      5.16518589      8.10738805     -2.40672688
  H      5.54484025      6.73752709     -1.35607382
  H      6.41920673      8.26852246     -1.17384475
  H      6.20720529      9.69856698      4.14290950
  H      6.35964294      8.04044355      4.80501842
  H      4.80501140      8.89792153      4.87766178
  N      8.09424274      1.27626966      8.36238711
  C      6.80803193      1.51216498      8.13198469
  N      6.68834487      2.66843256      7.49263653
  C      7.93027001      3.20745576      7.33769054
  C      8.81265007      2.33244777      7.88200275
  C      8.59836079      0.12546673      9.06032564
  C      8.81837451     -1.03767474      8.09884625
  C      5.46695201      3.26268532      7.03487666
  H      6.00451168      0.84898856      8.37269537
  H      8.06912933      4.15638489      6.85775638
  H      9.87844825      2.38128366      7.97383604
  H      9.53018237      0.40736922      9.55885019
  H      7.85731500     -0.12234707      9.82480197
  H      8.98829203     -1.95951466      8.64916363
  H      9.67431651     -0.84701288      7.45370080
  H      7.94203704     -1.15539003      7.46564310
  H      5.71026805      4.14414053      6.44299853
  H      4.85111171      3.54774992      7.88923138
  H      4.92427353      2.54035191      6.42435788
 Cl      6.37653012      1.93045994     10.78092469
 Cl      5.30615352      4.19520188     -0.74760204
 Cl      7.37962861      5.97657620      5.27122353
 Cl      6.24797877     -0.26844554      5.81463653
 Cl      4.31435667     11.64251939      0.67570143
