#B3LYP/6-31+G(d) OPT FREQ

62, Energy =    -96.26467253 au

0 1
  N      5.04344983      2.28252258      2.38109670
  C      5.14967966      1.13532186      1.71243396
  N      3.93370759      0.63377742      1.50630439
  C      3.01941113      1.52670084      1.98068248
  C      3.71229881      2.55531014      2.53344876
  C      6.18792590      3.07129244      2.78144072
  C      5.81414215      4.41356066      3.38267088
  C      3.62552747     -0.53591085      0.73746263
  H      6.06961546      0.62144063      1.53049041
  H      1.96815026      1.33196928      1.90373803
  H      3.35957838      3.44911327      3.00233327
  H      6.75725666      2.47694259      3.50384931
  H      6.80003848      3.21565999      1.88560823
  H      6.71649926      4.95251272      3.65922056
  H      5.21456121      4.28987224      4.28252640
  H      5.26206244      5.01544885      2.66436107
  H      3.82411929     -0.32659126     -0.31593360
  H      2.57328303     -0.78521257      0.88121971
  H      4.25351386     -1.36680461      1.05739041
  N      2.36315811     -0.24899737      4.61658060
  C      3.14373770      0.70708363      5.10446932
  N      2.38437756      1.71086292      5.52913358
  C      1.08166537      1.37760876      5.30593541
  C      1.06913418      0.14260089      4.73297469
  C      2.81067312     -1.50078636      4.06538867
  C      2.66085257     -2.61916977      5.09069355
  C      2.84936114      2.91567752      6.15020074
  H      4.22658438      0.66091351      5.09078269
  H      0.27532520      2.02882427      5.57203903
  H      0.27175705     -0.44107308      4.31806138
  H      2.18976839     -1.69918094      3.18428114
  H      3.85940046     -1.38343034      3.78935447
  H      3.00072999     -3.55512392      4.65690667
  H      1.61928195     -2.72998520      5.38407940
  H      3.25965316     -2.40570016      5.97426156
  H      2.84437679      2.80507825      7.24754738
  H      2.20148529      3.74617265      5.87552467
  H      3.86682413      3.11609337      5.82279088
  N      6.40180359      4.26008410      7.37752399
  C      5.75756064      3.21739121      7.89637733
  N      6.26669519      2.10324191      7.38522682
  C      7.26629337      2.44022604      6.52320344
  C      7.35238191      3.79940447      6.51917168
  C      6.15613822      5.65141646      7.66897978
  C      6.37565335      5.94257158      9.14827364
  C      5.82402336      0.77469363      7.69697957
  H      4.91290288      3.22889431      8.57335081
  H      7.79083422      1.69722054      5.95913529
  H      7.98928191      4.49596099      5.99754669
  H      6.85372137      6.23186290      7.04764900
  H      5.12629885      5.89243637      7.39084706
  H      6.19957002      6.99739747      9.33870432
  H      7.40098384      5.71010064      9.42547973
  H      5.69756173      5.35536221      9.76466183
  H      4.83219545      0.83481318      8.14283571
  H      6.50950388      0.30650181      8.40552346
  H      5.81158119      0.18777916      6.77497000
 Cl      8.51600927      6.70921949      5.63049567
 Cl      3.05007931      2.41608238      9.39851402
 Cl      0.34271676     -1.02781590      1.89829498
 Cl      6.16580205     -0.03681554      4.47472135
 Cl      5.66802523      2.00614133     -0.64035382

