#B3LYP/6-31+G(d) OPT FREQ

62, Energy =    -96.27091048 au

0 1
  N      6.11635205      6.36947256      4.22939822
  C      5.64113467      5.12782722      4.19652995
  N      5.85386529      4.61887347      2.98977738
  C      6.51284605      5.54578685      2.23899910
  C      6.67876098      6.64619619      3.01770664
  C      6.15650953      7.25065321      5.36908387
  C      7.45585417      7.04288313      6.14305509
  C      5.54109070      3.28659871      2.56528775
  H      5.09813116      4.64046414      4.98128891
  H      6.75759388      5.35449175      1.21442858
  H      7.09624043      7.61091734      2.81129372
  H      6.09038858      8.27731102      4.99526034
  H      5.29756916      7.02253953      6.00334021
  H      7.40022369      7.53681725      7.10913020
  H      8.29474905      7.45253912      5.58597457
  H      7.62856665      5.97847327      6.29029699
  H      4.61692563      2.96468285      3.04047529
  H      6.34687947      2.61739036      2.87270981
  H      5.43892366      3.28345197      1.47821007
  N      5.03606854      2.20397781      7.25017275
  C      6.14334548      1.47599536      7.19236961
  N      6.16699708      0.80631765      6.05186477
  C      5.04719152      1.12620159      5.34928540
  C      4.33589814      2.00974046      6.09675049
  C      4.66130085      3.09865915      8.31419745
  C      4.78255064      4.54702055      7.85297667
  C      7.19995875     -0.11253410      5.68333805
  H      6.90129284      1.42685117      7.94517527
  H      4.84219925      0.70975859      4.38443760
  H      3.42404373      2.53573627      5.88599261
  H      3.63119635      2.87568634      8.60917397
  H      5.32322189      2.89844153      9.15956111
  H      4.67474750      5.22414821      8.69671958
  H      4.00618656      4.76961355      7.12406081
  H      5.75750571      4.69363891      7.39438986
  H      6.92490740     -0.62485042      4.76381781
  H      7.30715153     -0.82952394      6.50265492
  H      8.13435321      0.43176615      5.53919070
  N      3.02039266      5.94281179      1.83733689
  C      2.71981445      6.55520452      2.97686059
  N      3.30150972      7.74981736      2.98654653
  C      3.98401557      7.90735314      1.81746130
  C      3.80401828      6.76887465      1.09232672
  C      2.54256121      4.64409183      1.43743580
  C      1.18202502      4.76443010      0.75806871
  C      3.21704511      8.72602832      4.03398259
  H      2.20939142      6.08295495      3.80703647
  H      4.57746200      8.78351565      1.64563936
  H      4.20884486      6.43708937      0.15501254
  H      3.27704748      4.22751268      0.73854455
  H      2.45868598      4.02790906      2.33421456
  H      0.84258961      3.77864766      0.45358098
  H      1.25749191      5.39253990     -0.12710343
  H      0.44853137      5.19269858      1.43960948
  H      2.35670609      9.37902221      3.87326099
  H      4.13216271      9.33165688      4.01031630
  H      3.10989184      8.22313908      4.99227259
 Cl      2.16055431      4.56241530      5.31785432
 Cl      6.01351710     -0.97579698      8.64651643
 Cl      7.52398764      3.56814531      5.56419106
 Cl      5.04682749      4.25318635     -0.72129850
 Cl      6.06732675     10.13660495      3.33008446

