62
Energy =    -96.29613970 au
  N      5.32699313      5.68951506      4.19223109
  C      5.18375992      5.14282398      2.99098355
  N      5.08671186      3.82446044      3.12852897
  C      5.15991117      3.52518863      4.45635429
  C      5.30689074      4.70085115      5.12563142
  C      5.50887430      7.09564361      4.44670997
  C      4.17200905      7.77543548      4.72065428
  C      4.99033706      2.86410064      2.06789853
  H      5.29983878      5.70194470      2.06816618
  H      5.14523105      2.51165450      4.79880951
  H      5.46343994      4.91619727      6.16388511
  H      6.16693144      7.18784307      5.31503574
  H      5.98035586      7.52578536      3.55996394
  H      4.33684200      8.83005997      4.91989509
  H      3.68827354      7.33069048      5.58815154
  H      3.51405349      7.68320407      3.85878321
  H      3.98576896      2.43992323      2.02247184
  H      5.70612296      2.05864148      2.26545381
  H      5.22468795      3.34808841      1.12331246
  N      9.02772146      3.19088960      6.50984328
  C      9.30799604      2.43984448      5.44897813
  N     10.40675154      2.90641241      4.86947562
  C     10.84542058      3.98334784      5.57463676
  C      9.97881258      4.16070170      6.60961354
  C      7.90830359      3.02398100      7.39954119
  C      8.33339551      2.32770547      8.68796474
  C     11.00794333      2.40099346      3.67186550
  H      8.68033606      1.66010400      5.04226380
  H     11.67994156      4.56319990      5.23334939
  H      9.92826436      4.92046055      7.36146615
  H      7.51490180      4.02555154      7.61226254
  H      7.15100242      2.43823473      6.87668848
  H      7.47728062      2.22956271      9.34904294
  H      9.09765521      2.90892687      9.19843977
  H      8.72875924      1.33522741      8.47764250
  H     11.87839172      1.78768588      3.91110831
  H     11.33532467      3.26210638      3.07643749
  H     10.27659219      1.80389630      3.13329469
  N      8.72217027      4.87054073      1.89371877
  C      9.15163199      6.08806756      2.19477075
  N      8.91631499      6.33330591      3.47467584
  C      8.33580184      5.22999981      4.01822557
  C      8.20627473      4.31068982      3.02686174
  C      8.66773795      4.31173436      0.56678175
  C      9.13408789      2.86449484      0.52607342
  C      9.30308163      7.50049798      4.20982142
  H      9.59756852      6.77440525      1.50523936
  H      8.04173546      5.22143265      5.04974229
  H      7.82410018      3.30877253      3.05853734
  H      7.63602338      4.40472165      0.20998547
  H      9.30128595      4.93013603     -0.07226826
  H      9.03171917      2.47924959     -0.48533748
  H      8.54674053      2.23990494      1.19341025
  H     10.17954779      2.80820164      0.81688199
  H     10.39312210      7.54742556      4.25004365
  H      8.90081823      7.42193225      5.21858631
  H      8.91852966      8.39655835      3.72295411
 Cl      7.39926220      6.26122893      7.18476109
 Cl    -56.71919859     42.49970997     48.77943988
 Cl      7.31041213      0.95328200      3.45560358
 Cl     11.84523932      5.43876659      2.81041469
 Cl      6.59022437      7.02912165      1.02507848
