#B3LYP/6-31+G(d) OPT FREQ

62, Energy =    -96.26766707 au

0 1
  N      9.34808541      7.64774422      5.78757330
  C      8.29145112      7.33661769      5.04865325
  N      8.11930414      6.02371403      5.06290137
  C      9.08874092      5.47097471      5.84335916
  C      9.85997955      6.49027401      6.29957801
  C      9.83920985      8.97582276      6.03586127
  C      9.34672128      9.47894605      7.38881770
  C      7.07383007      5.30043104      4.40075150
  H      7.69306462      8.03485364      4.50210822
  H      9.14944650      4.40658332      5.97601568
  H     10.72680351      6.48376944      6.92749789
  H     10.93255163      8.95523748      5.98942855
  H      9.47073771      9.61656412      5.23288324
  H      9.55797785     10.53916215      7.50034184
  H      9.82543619      8.93413279      8.19969260
  H      8.27254881      9.31428108      7.45381955
  H      6.11161477      5.59499041      4.82263307
  H      7.24101598      4.23421594      4.55273402
  H      7.08519952      5.53153602      3.33558210
  N      9.24115171      4.48290319     -0.28522352
  C      9.51028321      4.86096435      0.96179435
  N      9.82952048      3.79015135      1.67712472
  C      9.75430136      2.69626185      0.86519332
  C      9.38531751      3.13319225     -0.37036904
  C      8.88188547      5.33956157     -1.39070226
  C      9.90578407      6.45260414     -1.57157139
  C     10.22450417      3.81720188      3.05595373
  H      9.51654174      5.86617171      1.36789538
  H      9.95654950      1.70891260      1.22500909
  H      9.24015263      2.63329128     -1.31666911
  H      8.83875660      4.69843104     -2.28200949
  H      7.89256451      5.76617637     -1.20039835
  H      9.61446998      7.07744191     -2.41122728
  H     10.88327073      6.02634631     -1.78339700
  H      9.97604835      7.07144286     -0.67964310
  H     10.25829672      4.85590299      3.38097064
  H     11.21228481      3.36938421      3.16793207
  H      9.51997489      3.25864845      3.67890207
  N      4.69965840      2.41476022      7.13889725
  C      5.84374040      3.09097430      7.20108301
  N      5.70147116      4.10389898      8.04709233
  C      4.42704446      4.06863786      8.53502980
  C      3.79482491      3.00535384      7.96746069
  C      4.47181470      1.23060622      6.34692173
  C      4.14139301      0.03997383      7.23804814
  C      6.70947328      5.06508228      8.38638545
  H      6.74315919      2.84812185      6.64605119
  H      4.06682524      4.79695078      9.23102336
  H      2.80714556      2.58815407      8.13299070
  H      3.63305944      1.42064839      5.67194782
  H      5.37665980      1.05338484      5.76022294
  H      3.99762071     -0.84528319      6.62494949
  H      3.22227036      0.23504865      7.79165511
  H      4.95164757     -0.14675487      7.93948293
  H      6.71891483      5.22379210      9.46403698
  H      6.51330129      6.03108313      7.89439517
  H      7.67858639      4.69836346      8.05739420
 Cl      9.04938225      2.81810523     -3.57490544
 Cl      8.37396782      2.18375798      5.41333780
 Cl      9.98689948      7.44688867      2.76001313
 Cl      1.20923126      1.20565957      8.66514718
 Cl      6.27755396      7.94976128      6.89058823

