#B3LYP/6-31+G(d) OPT FREQ

62, Energy =    -96.26400406 au

0 1
  N     -0.75742691      5.02832387      4.73583222
  C      0.20939842      4.11748649      4.69240464
  N      0.87829738      4.25008341      3.55528225
  C      0.32526801      5.28299129      2.85524577
  C     -0.70243878      5.77369702      3.60032272
  C     -1.70156521      5.23041737      5.80857907
  C     -0.98636749      5.66192785      7.08347644
  C      1.99203630      3.43180804      3.16548077
  H      0.44053638      3.35272017      5.42445903
  H      0.70233888      5.58020715      1.89885486
  H     -1.42476571      6.56007301      3.44079032
  H     -2.40368430      6.00467156      5.47026289
  H     -2.23921274      4.29451234      5.98353641
  H     -1.71401692      5.80023649      7.87827360
  H     -0.46961144      6.60554451      6.92279690
  H     -0.26413934      4.90915678      7.39439154
  H      2.10656715      2.65000327      3.91794287
  H      2.90792834      4.02043425      3.10742483
  H      1.81558336      2.98318589      2.18840563
  N      7.94706091      1.25662608      1.55196858
  C      7.86566254      0.47336965      2.62490843
  N      8.06967339      1.21243169      3.70898148
  C      8.28901876      2.49973183      3.32756704
  C      8.21212973      2.52533337      1.96813946
  C      7.83255124      0.81767945      0.18164590
  C      6.57224366     -0.00292182     -0.04895405
  C      8.09414254      0.72821237      5.05943118
  H      7.57266746     -0.57550055      2.65254055
  H      8.44777693      3.26966133      4.05907072
  H      8.27441049      3.34521447      1.28339575
  H      7.79811028      1.71359039     -0.44161881
  H      8.72684178      0.23279192     -0.06943892
  H      6.56882738     -0.38563491     -1.06684339
  H      5.71369354      0.64914154      0.08466171
  H      6.50638891     -0.83579879      0.64669572
  H      7.27465835      0.03076148      5.21135780
  H      8.02614635      1.58592176      5.73495826
  H      9.03307713      0.20592306      5.25045549
  N      4.74216901      2.01401146      5.94340957
  C      4.28538260      1.00604708      5.20742431
  N      4.54033444      1.24996554      3.92891197
  C      5.18563315      2.44680150      3.84242952
  C      5.31417010      2.92571740      5.10908138
  C      4.61737599      2.13123278      7.37237923
  C      5.86938184      1.62218323      8.07398850
  C      4.21107725      0.41118007      2.81225363
  H      3.76774039      0.14591869      5.58129091
  H      5.45600191      2.86046988      2.88510861
  H      5.81665038      3.79650235      5.47950149
  H      4.46373609      3.18575949      7.60938294
  H      3.72563797      1.57475853      7.66855528
  H      5.76652988      1.74784154      9.14876940
  H      6.73194860      2.19353095      7.73576055
  H      6.03148544      0.56897857      7.85589197
  H      4.85887879     -0.47305004      2.79438232
  H      4.36037401      0.99073417      1.90256521
  H      3.17391282      0.08845401      2.88613158
 Cl      5.33468159      3.12832779      0.62529064
 Cl      1.52571979      1.60186707      6.08641089
 Cl      6.42611744     -2.29422295      2.96987525
 Cl     -3.32651200      7.59799319      4.13116190
 Cl      8.27045543      3.70271359      6.52413555

