#B3LYP/6-31+G(d) OPT FREQ

62, Energy =    -96.25095654 au

0 1
  N      2.57833502      7.10967164      5.93529483
  C      1.66339206      6.64742580      6.79508396
  N      2.25918244      5.82094966      7.65324243
  C      3.58436555      5.76039403      7.34940494
  C      3.78795217      6.56960265      6.27548238
  C      2.29575737      8.03477955      4.86499379
  C      2.80210770      9.43612309      5.19162744
  C      1.63447401      5.08985480      8.71520595
  H      0.61375866      6.89662579      6.72172370
  H      4.26217958      5.21150929      7.97645051
  H      4.68485834      6.79197435      5.73587305
  H      2.76622151      7.66811987      3.94864007
  H      1.20838339      8.05013831      4.73900547
  H      2.54399659     10.11267695      4.38179834
  H      3.88310823      9.44344255      5.32022210
  H      2.33170023      9.80092446      6.10108594
  H      0.73339246      5.60448920      9.03998911
  H      2.36230942      5.01071037      9.53482671
  H      1.38137543      4.08263861      8.38044953
  N      0.60664849      3.79682223      3.79467313
  C     -0.09126376      4.58857680      4.60086406
  N     -0.77366996      3.83271480      5.46016144
  C     -0.49574773      2.52210199      5.18694540
  C      0.37669628      2.50129790      4.14315895
  C      1.52890525      4.19440776      2.76340446
  C      2.94372418      4.26623196      3.32816354
  C     -1.65696409      4.33869938      6.47316781
  H     -0.16466898      5.66696775      4.58454044
  H     -0.93122488      1.71845707      5.74404582
  H      0.79472068      1.70878568      3.53425376
  H      1.49429891      3.40887915      1.99115965
  H      1.21319395      5.15941425      2.36441134
  H      3.62399967      4.62703495      2.56242784
  H      3.26534319      3.27232035      3.62597966
  H      2.99202787      4.92985053      4.19177530
  H     -1.64296283      5.43029192      6.41989843
  H     -1.33162348      4.00848460      7.46114788
  H     -2.67344481      3.98446706      6.29948859
  N      6.25781432      7.99607885     10.13231956
  C      5.07864850      7.99854647     10.75875437
  N      4.12846695      8.33924248      9.88472828
  C      4.73475829      8.67361083      8.70593948
  C      6.06258786      8.45105704      8.85690785
  C      7.51237198      7.63601791     10.73482352
  C      7.80858686      6.15232349     10.52347407
  C      2.74731292      8.48448601     10.23066387
  H      4.89062372      7.55878807     11.71504629
  H      4.18037836      9.04400185      7.86856704
  H      6.87679828      8.57880754      8.17279588
  H      8.29833908      8.25730668     10.29593241
  H      7.43707892      7.87002347     11.79897039
  H      8.63749931      5.83903303     11.15108134
  H      8.05862238      5.95397665      9.48211395
  H      6.92763275      5.56629538     10.77570092
  H      2.16514084      8.72867719      9.34420511
  H      2.65372707      9.28316159     10.97098483
  H      2.39254547      7.54995714     10.66541732
 Cl      5.25145962     10.11816180     12.00893753
 Cl     -1.05114434      7.51899754      5.46423614
 Cl     28.66938358     28.78320417    -19.39212950
 Cl      1.39029739      1.23595289      1.47417908
 Cl      4.39722944      5.14994824     10.36927550

