62
Energy =    -96.26887631 au
  N      9.22220704      8.05421720      1.28650478
  C      9.17218730      8.34713116      2.58260984
  N      8.32165070      9.34714608      2.76729861
  C      7.79494242      9.70330524      1.56748816
  C      8.36130433      8.88760408      0.63792029
  C      9.94603080      6.95664158      0.68578359
  C     11.41566569      6.93465912      1.07375303
  C      7.98937197      9.93682153      4.03156606
  H      9.74447137      7.90414022      3.38240806
  H      7.08825259     10.51387755      1.49293902
  H      8.19995798      8.82443700     -0.41832646
  H      9.45257082      6.03200942      0.99319245
  H      9.83932147      7.04513704     -0.39767619
  H     11.86501568      6.00751930      0.72288616
  H     11.53423532      6.97959583      2.15198066
  H     11.94382369      7.77571589      0.62878661
  H      7.68502270     10.97009727      3.86932783
  H      8.84997109      9.86575397      4.69609874
  H      7.15545647      9.39527637      4.47966718
  N      8.82012487      5.15843197      3.98650394
  C      8.40881103      4.32717961      3.03584486
  N      9.47055153      3.81914799      2.41643886
  C     10.59350278      4.32846355      2.99801920
  C     10.18274312      5.16982784      3.98561548
  C      7.96597923      5.97448818      4.81192857
  C      7.28756665      5.14654732      5.89690593
  C      9.46354802      2.93277524      1.28748424
  H      7.38729296      4.16780008      2.75745630
  H     11.56383483      4.08412395      2.60535875
  H     10.72522271      5.81574234      4.65116544
  H      8.59443256      6.75287155      5.25738960
  H      7.22312397      6.42539805      4.14686537
  H      6.65931840      5.79185849      6.50459093
  H      8.03236277      4.68587300      6.54359901
  H      6.66680028      4.36497098      5.46089724
  H     10.45065256      2.99428343      0.80919032
  H      8.68671362      3.23704686      0.58798979
  H      9.28021545      1.90482756      1.60571840
  N      4.25617533      8.88841585      1.95359957
  C      3.98640174      7.59202061      2.04400741
  N      4.21363936      7.18670690      3.28300801
  C      4.63903122      8.25755355      4.00881422
  C      4.66103477      9.33141812      3.17458711
  C      4.03592341      9.72688139      0.80374302
  C      2.54814680     10.04879206      0.68476250
  C      3.99059700      5.84819541      3.73593921
  H      3.65241200      6.95887292      1.24909575
  H      4.88499503      8.17496345      5.04822425
  H      4.95755288     10.35573301      3.31221952
  H      4.62074137     10.64080712      0.94624950
  H      4.38859173      9.19561071     -0.08372943
  H      2.33729881     10.51118081     -0.27572680
  H      2.25424293     10.73415803      1.47532959
  H      1.95920387      9.13911307      0.78626244
  H      2.95961827      5.58545193      3.48183164
  H      4.14673497      5.79047117      4.81088402
  H      4.68122092      5.18132273      3.21771118
 Cl      5.91659969     12.31910011      2.24089711
 Cl     12.58631551      3.50004124      0.46388595
 Cl      6.72481087      6.29525680      1.68450094
 Cl     10.55514399      8.04210415      5.54618348
 Cl      1.21420032      6.93012474      2.28710529
