62
Energy =    -96.26543386 au
  N      4.19864025      7.30598970      4.48392591
  C      4.36815224      8.07512933      3.41132591
  N      3.23084087      8.10229504      2.72495823
  C      2.31009274      7.33588455      3.37077945
  C      2.91913638      6.83498324      4.48009026
  C      5.21664344      6.93997406      5.44187548
  C      5.84836814      8.16616748      6.08636168
  C      2.98075551      8.79311178      1.49289306
  H      5.25626641      8.65225700      3.18458920
  H      1.33678553      7.18003039      2.94236202
  H      2.56324509      6.17378515      5.24988236
  H      4.73734000      6.30595731      6.19291068
  H      5.97383880      6.34869425      4.91632062
  H      6.65391718      7.86030773      6.74908195
  H      5.10776276      8.70880516      6.67069066
  H      6.25076025      8.83982644      5.33243979
  H      2.71292953      9.83250683      1.68932831
  H      2.14628360      8.29135638      0.99001083
  H      3.87262379      8.77194993      0.87054584
  N      9.56670036      5.96903670      5.97715893
  C      8.80784833      6.02240511      4.88402564
  N      9.01696246      7.17665955      4.26670375
  C      9.93280127      7.88411419      4.98646165
  C     10.28043440      7.12354978      6.06193305
  C      9.64923242      4.87668564      6.91675021
  C      9.91959307      3.55915817      6.20181284
  C      8.38863456      7.57335715      3.04081457
  H      8.12118791      5.27052683      4.51848924
  H     10.24879895      8.86340806      4.69355161
  H     10.99040188      7.26264857      6.86169124
  H     10.46926862      5.11819563      7.60756678
  H      8.70891958      4.81639619      7.47342915
  H      9.98118263      2.75848258      6.93331443
  H     10.86729862      3.61342692      5.67205227
  H      9.13042485      3.32585180      5.49051061
  H      7.83932040      8.51610974      3.17287497
  H      7.69954987      6.78828148      2.73618227
  H      9.14088488      7.71925867      2.26551703
  N      2.91937367      3.02600620      3.67622394
  C      3.90136351      3.50758097      4.43482644
  N      4.55830525      2.49914246      4.99678215
  C      3.94309608      1.33952826      4.63670541
  C      2.91880513      1.66792582      3.80570799
  C      1.99825401      3.82229867      2.89795583
  C      2.66457261      4.41222846      1.66278786
  C      5.64135484      2.67679278      5.91587016
  H      4.21819772      4.52674497      4.47320309
  H      4.27485669      0.38388931      4.98931092
  H      2.19976277      1.04917957      3.30896084
  H      1.15863158      3.18570080      2.61031338
  H      1.62435919      4.62368248      3.53817867
  H      1.99439559      5.14158346      1.21020471
  H      2.89081436      3.63545748      0.93519879
  H      3.59191318      4.90979524      1.93333005
  H      6.40216962      3.28544696      5.42248028
  H      6.05062802      1.71128029      6.20290780
  H      5.26554053      3.20822798      6.79206712
 Cl      6.67052644     10.35411482      3.35691645
 Cl      0.33028393      6.87121489      0.74025640
 Cl     12.26832515      6.20543371      8.48883961
 Cl      6.58433338      4.38824888      3.27064894
 Cl      2.65160470      4.21640496      6.61693045
