#B3LYP/6-31+G(d) OPT FREQ

62, Energy =    -96.23961479 au

0 1
  N      7.57953627      8.12416563      8.97588959
  C      7.32424410      7.77971086     10.23724870
  N      6.57780270      8.72762871     10.80139554
  C      6.33095249      9.69084346      9.87131575
  C      6.95469647      9.31259144      8.72541792
  C      8.30618741      7.32053658      8.02851414
  C      7.34088959      6.59556896      7.09532447
  C      6.02688610      8.70350981     12.12599301
  H      7.73896252      6.90852483     10.70721425
  H      5.70236288     10.53007222     10.10570559
  H      7.00670368      9.79372898      7.77054478
  H      8.97642622      7.97051057      7.45801670
  H      8.90325678      6.60685467      8.60486411
  H      7.88737827      5.89570157      6.46844092
  H      6.81686031      7.30272840      6.45547505
  H      6.60596567      6.04753145      7.68057728
  H      5.33180436      9.53969340     12.22135246
  H      6.81680747      8.78156293     12.87401358
  H      5.48847264      7.76492235     12.26435668
  N      2.40580886      9.31571060      8.96810100
  C      2.91288131      8.86780278     10.11674567
  N      1.91165851      8.54618268     10.93323547
  C      0.73736303      8.89935570     10.33002871
  C      1.04527355      9.37475286      9.09770535
  C      3.19733629      9.68106406      7.82292556
  C      3.71327115      8.43219264      7.11326806
  C      2.09952414      8.05468007     12.26542037
  H      3.93060650      8.57311941     10.26845877
  H     -0.21069458      8.78506222     10.81435784
  H      0.41357670      9.74720307      8.31807794
  H      2.57869333     10.28359641      7.15365303
  H      4.03289126     10.28845271      8.17991768
  H      4.39018871      8.70922270      6.30967377
  H      2.88693523      7.86307123      6.69227723
  H      4.24082441      7.79452524      7.81892111
  H      2.74352295      7.17464271     12.23088805
  H      1.13856409      7.79626932     12.70473799
  H      2.58644699      8.82958827     12.86241194
  N      8.91789379      3.13077535      9.50866160
  C      8.66464693      3.52118145     10.77104280
  N      7.39898970      3.95671102     10.84489086
  C      6.85257692      3.89023127      9.59643221
  C      7.79328360      3.38167836      8.76427814
  C     10.21345913      2.73715118      9.02478613
  C     10.57561375      1.32331388      9.47090888
  C      6.77380142      4.53912856     11.99669093
  H      9.34443111      3.44657119     11.59095797
  H      5.86160191      4.25376657      9.40801415
  H      7.75539147      3.18394412      7.71313282
  H     10.20104292      2.79790654      7.93425394
  H     10.94061775      3.46048324      9.40762598
  H     11.54612072      1.04649318      9.06799998
  H      9.83452437      0.60994324      9.11580257
  H     10.62261131      1.26528230     10.55515152
  H      6.39407940      3.76648852     12.66872836
  H      5.94557506      5.16053288     11.65157644
  H      7.50215991      5.15102613     12.52743689
 Cl     34.24432043     -2.62901819    -11.04839019
 Cl    -26.15960563     -8.62513353      2.70057439
 Cl      9.92995606      5.85481021     10.61921981
 Cl      3.62631726     11.03432493     11.19724994
 Cl      4.64022092      6.31647979     10.01867444

