#B3LYP/6-31+G(d) OPT FREQ

62, Energy =    -96.26398452 au

0 1
  N      3.56236501      0.84476367      1.86667329
  C      3.35909624      2.14623920      2.09874642
  N      3.99393121      2.48889782      3.22215370
  C      4.53379253      1.35839653      3.77153093
  C      4.26383711      0.33502672      2.92643414
  C      2.93738883      0.09001634      0.81231790
  C      3.58479179      0.35211591     -0.54262592
  C      3.97080383      3.79080546      3.82618979
  H      2.93700423      2.83945120      1.40300880
  H      5.09493621      1.37284695      4.68740799
  H      4.51447735     -0.70307523      2.98976518
  H      3.02038439     -0.96830183      1.06811624
  H      1.87936146      0.37379835      0.80295861
  H      3.13988296     -0.29806253     -1.29150346
  H      4.65355247      0.15222167     -0.50368284
  H      3.43245151      1.38377887     -0.84707416
  H      4.51529924      3.74924078      4.76666143
  H      2.93461044      4.07875219      4.01205568
  H      4.43506604      4.53404305      3.17520461
  N      7.56185147      4.21806936     -0.30857410
  C      8.00721807      2.97610416     -0.49013430
  N      9.23173542      2.87515183      0.03337678
  C      9.57153564      4.08856710      0.55659223
  C      8.52404507      4.92877694      0.34162252
  C      6.26732859      4.75735162     -0.65028133
  C      5.23299212      3.66995457     -0.87473399
  C     10.00075783      1.66457254      0.06685854
  H      7.48116516      2.12236938     -0.88804681
  H     10.51403951      4.26077464      1.03418535
  H      8.34578611      5.93441205      0.66642798
  H      5.97809587      5.40108775      0.19525772
  H      6.37007155      5.38437212     -1.54261541
  H      4.25810770      4.13085909     -1.00834415
  H      5.19229449      3.01509138     -0.00894891
  H      5.45825197      3.07373464     -1.75637046
  H      9.31064498      0.83031969     -0.10017744
  H     10.48466146      1.55820473      1.03649286
  H     10.76275951      1.66674705     -0.71482833
  N      7.92921072      3.21503362      3.77567870
  C      8.38771743      1.98262549      4.00912011
  N      7.94445550      1.17508835      3.04285610
  C      7.11084982      1.89521508      2.22931166
  C      7.10851710      3.17119364      2.68328263
  C      8.12091083      4.36836433      4.61542584
  C      9.56336980      4.85996899      4.57433447
  C      8.12682496     -0.24391136      2.95887182
  H      9.13883243      1.72520078      4.72510317
  H      6.64474051      1.42319247      1.38844785
  H      6.62411557      4.06863050      2.34423370
  H      7.45445316      5.14931792      4.24325858
  H      7.83602607      4.08919279      5.63414249
  H      9.67415654      5.71377470      5.23661133
  H      9.82022063      5.17206792      3.56427922
  H     10.25205361      4.08086778      4.89537351
  H      7.84835588     -0.56420275      1.95493388
  H      7.49227740     -0.73501382      3.69912775
  H      9.16578210     -0.50577731      3.15899759
 Cl     31.18583055     21.86342071      4.24552869
 Cl      0.92679798      2.04452759      2.71036965
 Cl      7.24953465     -0.09229809     -0.50729624
 Cl      6.32895063      6.34095838      2.18252313
 Cl      7.03600175      1.33208382      6.04576326

