62
Energy =    -96.25895958 au
  N      6.10505785      4.64267476      1.28662569
  C      5.80728580      5.90979634      1.56753982
  N      5.78708787      6.61672418      0.44262473
  C      6.12313334      5.77984000     -0.58305506
  C      6.31183867      4.54438122     -0.05562747
  C      6.27259614      3.58882975      2.25382287
  C      4.93375994      2.97768534      2.65161174
  C      5.65980367      8.04391928      0.37870258
  H      5.53952956      6.28753104      2.53019521
  H      6.19713347      6.11707887     -1.59614810
  H      6.55005232      3.61629645     -0.52981772
  H      6.90773757      2.82478589      1.80070852
  H      6.79414239      4.01474356      3.11598862
  H      5.09455061      2.07755093      3.23821655
  H      4.37425662      2.72339213      1.75306386
  H      4.34658555      3.68010408      3.23693809
  H      4.67742988      8.37179519      0.72909704
  H      5.80125912      8.37592465     -0.64708130
  H      6.43175388      8.48258422      1.01452917
  N      1.78371645      6.34771629      0.67194710
  C      1.19601510      7.31049006      1.37772609
  N      1.47309482      7.13440326      2.66996420
  C      2.30886995      6.05719192      2.77410301
  C      2.50149715      5.56372705      1.52358612
  C      1.72555965      6.16658159     -0.75823628
  C      2.63555964      7.16212341     -1.47082979
  C      1.09278261      8.04410396      3.71106372
  H      0.54483283      8.06350903      0.98628274
  H      2.68372442      5.72823992      3.72097763
  H      3.04304868      4.71363030      1.13640152
  H      2.05637769      5.14299667     -0.96228460
  H      0.68840442      6.29720585     -1.07971434
  H      2.37651672      7.21440134     -2.52453262
  H      3.66707683      6.83828896     -1.38100452
  H      2.53711733      8.14998295     -1.02701180
  H      1.43742615      9.04163051      3.42637726
  H      1.56145156      7.75040282      4.64641315
  H      0.00853036      8.05867789      3.83192449
  N      8.00297985      9.36984775      4.54701259
  C      6.89425122      8.70725379      4.87068077
  N      5.91614703      9.06542706      4.04032036
  C      6.39035343     10.05082028      3.22290512
  C      7.69536667     10.23692964      3.53721004
  C      9.24310923      9.30879165      5.27495824
  C      9.73390294      7.87280376      5.42104733
  C      4.54725996      8.66046627      4.15608565
  H      6.84796652      7.88426887      5.55046449
  H      5.76361933     10.52228938      2.49397963
  H      8.42390971     10.90026570      3.11875392
  H      9.97458355      9.90887720      4.72830505
  H      9.06883822      9.75872686      6.25985816
  H     10.78316221      7.86113655      5.70493054
  H      9.61038077      7.34887110      4.47583487
  H      9.16246467      7.34898464      6.18189313
  H      4.49392589      7.58033001      4.29120055
  H      4.00174763      8.95402638      3.25853351
  H      4.11438978      9.14632007      5.03463981
 Cl      2.71738680      9.53820719      1.26628671
 Cl      8.07318316      6.76217220      2.54798812
 Cl      6.24098023      9.97975743      6.95525720
 Cl    -18.80048423     -3.98878362     14.06883745
 Cl      3.53605512      3.29606954     -0.50609346
