#B3LYP/6-31+G(d) OPT FREQ

62, Energy =    -96.26951377 au

0 1
  N      4.94189263      4.61278963      5.77518554
  C      4.47725391      4.57690189      7.01963438
  N      3.16330745      4.76750021      6.99942072
  C      2.78212488      4.96171384      5.70463565
  C      3.89472956      4.85825871      4.93279313
  C      6.32121326      4.47571202      5.38280395
  C      6.53127923      3.25040209      4.50435574
  C      2.29899022      4.88366691      8.13731402
  H      5.06177674      4.36915433      7.89135282
  H      1.75367889      5.12909588      5.45725464
  H      4.01830552      4.91161179      3.86515967
  H      6.60716056      5.37692371      4.83309954
  H      6.91786364      4.41975350      6.29501115
  H      7.58492087      3.15996532      4.25376369
  H      5.96737543      3.36326848      3.58327012
  H      6.21893090      2.34173231      5.01510262
  H      1.26622861      4.76566937      7.80255643
  H      2.43711348      5.86537680      8.59260630
  H      2.54171085      4.11837350      8.87288466
  N      5.57758299      8.09910554      4.48211014
  C      5.45889803      8.02895645      3.15791769
  N      4.17445155      7.93926314      2.84175171
  C      3.44931163      7.97897296      3.99438586
  C      4.32815881      8.08604689      5.02501476
  C      6.79347237      8.30577301      5.22773513
  C      7.09540732      9.79887306      5.31731062
  C      3.67151565      7.85059632      1.50382110
  H      6.26710186      8.00064185      2.45770911
  H      2.38082509      7.91859115      3.99730309
  H      4.18897925      8.09901539      6.08848282
  H      6.64551354      7.87267728      6.22247625
  H      7.60706742      7.78859863      4.71219718
  H      8.09585696      9.95816205      5.71112183
  H      6.37735456     10.28498193      5.97262926
  H      7.01783502     10.24519811      4.32689176
  H      2.60594194      8.06823924      1.50031696
  H      3.83831389      6.83914231      1.12231366
  H      4.20439081      8.57740368      0.89013979
  N      3.23373525      1.72352287      3.40336125
  C      3.16013503      1.31779676      4.66483215
  N      2.06087210      1.82699152      5.21155577
  C      1.41358079      2.57342229      4.27417289
  C      2.15414885      2.50913568      3.13474074
  C      4.26260549      1.35562794      2.46603509
  C      3.76315160      0.27013095      1.51817915
  C      1.61373551      1.62971324      6.56065657
  H      3.92514196      0.72300505      5.17107137
  H      0.51254709      3.10114072      4.52411186
  H      2.04013233      3.00059084      2.19139645
  H      4.53630079      2.25788455      1.90801098
  H      5.11676418      0.99184310      3.03878560
  H      4.54584295      0.02139978      0.80694002
  H      2.89034031      0.61466980      0.96705427
  H      3.49957347     -0.62754109      2.07508660
  H      1.13825872      0.65290934      6.66050393
  H      0.88298678      2.41004118      6.79570403
  H      2.46364703      1.67227417      7.23819068
 Cl      4.37168646      4.55289130      1.59187528
 Cl      5.28786536      6.95943356      8.03112094
 Cl      5.84401952     10.52183053      2.07633801
 Cl      5.64227048     -0.09022745      5.95708093
 Cl     -0.59380686      4.11450857      6.48394665

