#B3LYP/6-31+G(d) OPT FREQ

62, Energy =    -96.26134472 au

0 1
  N      9.01014471      8.03085568      9.61545613
  C      9.90615926      7.34269601      8.91543829
  N      9.28321786      6.71247675      7.92574126
  C      7.95503609      7.00384957      7.98939976
  C      7.78251891      7.83755227      9.04947971
  C      9.32468509      8.87634561     10.74051847
  C      9.22204481     10.34785817     10.35528990
  C      9.86679333      5.85279406      6.93424389
  H     10.95822425      7.32664494      9.19157323
  H      7.27762025      6.62084428      7.24182341
  H      6.89367964      8.29043401      9.43732223
  H      8.63732747      8.64470745     11.55860875
  H     10.35701694      8.63813367     11.03306791
  H      9.45525535     10.96549579     11.21752323
  H      8.22236572     10.59724770     10.00222529
  H      9.93942090     10.57065985      9.57026010
  H      9.13096531      5.72623109      6.13182446
  H     10.09916484      4.88002567      7.36784969
  H     10.78224444      6.29559305      6.54700874
  N      7.49308938      1.26127024      2.30085111
  C      7.31802887      1.15808044      3.61516360
  N      7.63764306      2.31484318      4.18125891
  C      8.03425586      3.18094396      3.20812065
  C      7.94063773      2.51840493      2.02308507
  C      7.30312931      0.22886307      1.30900623
  C      6.13468960     -0.68328893      1.64458682
  C      7.56213547      2.58327008      5.58866303
  H      6.91067522      0.32432914      4.18077548
  H      8.29388865      4.19469034      3.43547761
  H      8.09901861      2.82629268      1.00517941
  H      7.15522076      0.73918501      0.34751345
  H      8.22576658     -0.35911520      1.24250976
  H      6.28357111     -1.19298154      2.59267093
  H      6.02625292     -1.42799235      0.86048882
  H      5.21485864     -0.11118842      1.70859290
  H      6.88870323      1.85751234      6.04263644
  H      7.21139514      3.60632222      5.73787941
  H      8.55033631      2.48400599      6.04175586
  N      4.32132504      2.61348955      1.47734600
  C      3.80502834      1.97269832      2.52394100
  N      4.17325338      2.59164690      3.64219585
  C      4.89253262      3.69726761      3.29745347
  C      4.98381369      3.71143787      1.94277603
  C      4.12607649      2.29182806      0.08576850
  C      3.01797422      3.16353658     -0.49635878
  C      3.81503100      2.17132747      4.96564508
  H      3.24252954      1.06386998      2.48765848
  H      5.28992553      4.37917937      4.02278933
  H      5.48347551      4.38893083      1.28296796
  H      5.07729060      2.43805086     -0.44061604
  H      3.83887275      1.24023102      0.02054259
  H      2.77424077      2.83493784     -1.50312883
  H      3.33116662      4.20430728     -0.53192142
  H      2.13588318      3.08464738      0.13680038
  H      2.73961758      1.99410496      4.99279910
  H      4.07846656      2.95411457      5.67273919
  H      4.34388608      1.24851563      5.22916950
 Cl      5.83329312     -0.59159601      5.73996018
 Cl     12.45028498      7.87276036     10.65342975
 Cl      7.32621854      2.39116186     -1.21772012
 Cl      1.21673964      2.62655085      2.50531415
 Cl      7.07532809      5.88390841      5.12440237

