62
Energy =    -96.25494280 au
  N      2.03095670      2.58936678      4.36887109
  C      2.35355502      1.49568491      5.07186691
  N      3.05983240      0.67375001      4.28697822
  C      3.18667958      1.25662552      3.06311280
  C      2.54801940      2.45615995      3.11658353
  C      1.30322688      3.73884162      4.84351787
  C      2.12066223      4.52813608      5.86056381
  C      3.58967180     -0.61311807      4.63737722
  H      2.08195114      1.30349496      6.08966661
  H      3.74203023      0.74580869      2.29061062
  H      2.38025692      3.22974623      2.38745844
  H      1.09599713      4.36046749      3.96179953
  H      0.36195260      3.40541953      5.29104505
  H      1.56430973      5.40977071      6.16466345
  H      3.05645928      4.84971481      5.41197034
  H      2.33998364      3.93116261      6.74505088
  H      4.23701612     -0.53703451      5.51129228
  H      4.16626495     -0.97407965      3.77270253
  H      2.78188284     -1.31434179      4.85307255
  N      5.46884570      4.03690922      1.80658910
  C      6.19896950      2.91735911      1.89006613
  N      6.12455649      2.44894431      3.13957593
  C      5.45347873      3.37165941      3.89559887
  C      5.03796429      4.35822238      3.06301546
  C      5.27411126      4.80447518      0.60524740
  C      4.09315446      4.26874999     -0.19823457
  C      6.80742852      1.26891327      3.58426154
  H      6.54550080      2.34212945      1.05655274
  H      5.32883497      3.25312051      4.95297263
  H      4.45960013      5.24025502      3.24520162
  H      5.09301803      5.84352526      0.88732909
  H      6.20272298      4.75053893      0.03068998
  H      4.03235804      4.78163148     -1.15411109
  H      3.16493624      4.43790921      0.34361754
  H      4.21374637      3.20279542     -0.37763672
  H      6.40720569      0.39646766      3.05524859
  H      6.67336239      1.14930149      4.65687540
  H      7.86933053      1.37507635      3.35449118
  N     -0.96867623      2.73654924      1.77936835
  C     -0.21939001      2.59424887      0.68473224
  N      0.54969752      1.51081268      0.82640817
  C      0.17401836      0.87231690      1.97412912
  C     -0.76908667      1.63999263      2.57295886
  C     -1.90290722      3.80360483      2.02033400
  C     -3.30260795      3.42034275      1.55318231
  C      1.44350693      1.00909468     -0.17505784
  H     -0.07402369      3.35871629     -0.04962760
  H      0.60927329     -0.06138590      2.26568535
  H     -1.30641342      1.49889227      3.48839105
  H     -1.88904749      4.03451150      3.08995121
  H     -1.53990880      4.67679937      1.47651610
  H     -3.95400457      4.28991694      1.55360440
  H     -3.72944618      2.65606630      2.19953217
  H     -3.23586040      3.01768791      0.54489870
  H      0.85437941      0.63193902     -1.01505402
  H      2.05734906      0.21323752      0.24075653
  H      2.08327816      1.81663057     -0.52855026
 Cl     -1.81991121      1.61761780     -0.96328628
 Cl      1.22602463      5.09913551      1.85389300
 Cl      8.45566456      3.85760952      1.90931334
 Cl     21.46880576     30.50046593     34.57647044
 Cl      5.00058018     -0.99173827      1.73803128
