62
Energy =    -96.27705071 au
  N      4.32407872      6.30505572      4.47454989
  C      4.46299770      6.01018122      3.18525052
  N      4.20041041      4.71762397      3.00514546
  C      3.88644724      4.17309857      4.21717859
  C      3.97169507      5.16979532      5.13786158
  C      4.58526158      7.58376177      5.08129386
  C      3.29751847      8.24346870      5.56001137
  C      4.26096210      4.05561979      1.73309270
  H      4.77119509      6.65685348      2.36441862
  H      3.65279213      3.13609333      4.34160348
  H      3.84826097      5.14212159      6.19967140
  H      5.27613189      7.41218365      5.91253917
  H      5.07996979      8.20748294      4.33489895
  H      3.52727129      9.20008360      6.02023349
  H      2.79181829      7.61962823      6.29353228
  H      2.62501613      8.41363903      4.72167900
  H      3.27283622      3.69574107      1.44332977
  H      4.94900806      3.21182895      1.77295946
  H      4.61695380      4.78708589      0.99932360
  N     10.04825285      3.36200781      5.84014459
  C     10.96171775      2.53242196      5.34184726
  N     11.53244147      3.10214103      4.28717512
  C     10.97342145      4.33144161      4.10285231
  C     10.04339141      4.49720668      5.08031048
  C      9.19273051      3.09655215      6.96792084
  C      9.92100416      3.35553299      8.28305807
  C     12.47861782      2.48708636      3.40175283
  H     11.19864598      1.56525071      5.73240994
  H     11.30005532      4.94973223      3.28293421
  H      9.35580508      5.29332304      5.28393834
  H      8.32255997      3.75261312      6.88335834
  H      8.86840249      2.05538105      6.90417758
  H      9.25446960      3.15027441      9.11596706
  H     10.23575536      4.39529261      8.34047679
  H     10.79870136      2.71778482      8.37187026
  H     13.42571096      2.30654663      3.91186230
  H     12.63437910      3.16031065      2.55453077
  H     12.06874389      1.53745450      3.05698732
  N      8.54028043      5.17474575      1.89434395
  C      7.69591936      4.75303072      2.83029688
  N      7.87142812      3.45124576      3.02832798
  C      8.86124439      3.02819581      2.19900337
  C      9.28271870      4.11136119      1.48518456
  C      8.59283616      6.54118757      1.41638120
  C      9.58812809      6.72611382      0.28587459
  C      7.16565227      2.63713382      3.97513830
  H      7.02099854      5.37063091      3.38949065
  H      9.20810736      2.01419918      2.22343705
  H     10.09725333      4.20045958      0.79490605
  H      7.58226747      6.81124444      1.08295677
  H      8.86047307      7.18032664      2.26312264
  H      9.62083950      7.77750746      0.01321046
  H      9.28278962      6.15616478     -0.58846469
  H     10.58601787      6.41350666      0.58702118
  H      7.83294415      1.83546640      4.30379585
  H      6.28631754      2.18588223      3.51238234
  H      6.85800018      3.25735338      4.81584553
 Cl      6.79281830      5.39460379      5.99404059
 Cl    -53.13738590     40.78629375     45.50439895
 Cl      9.59298076      0.40422838      4.24706469
 Cl     12.47458426      5.08607931      1.29040334
 Cl      5.32049286      6.89729890      0.35511768
