62
Energy =    -96.29691227 au
  N      4.88741271      6.51866290      4.17260716
  C      4.60328658      5.74888672      3.12816832
  N      4.45579101      4.49670982      3.54711013
  C      4.63845800      4.46735172      4.89647393
  C      4.90765556      5.74157688      5.29032125
  C      5.15133509      7.93341355      4.12057122
  C      3.90296514      8.73406848      4.47520061
  C      4.19712633      3.35907083      2.71313900
  H      4.66967887      6.06509862      2.09158260
  H      4.62261808      3.54583953      5.44157094
  H      5.16890024      6.14366268      6.24745078
  H      5.95495518      8.14194940      4.83509976
  H      5.48264132      8.16825617      3.10783195
  H      4.12874087      9.79573032      4.43515143
  H      3.56814129      8.49022246      5.48139495
  H      3.09796589      8.52125912      3.77346746
  H      3.13287926      3.11543194      2.71391663
  H      4.75586320      2.50607808      3.11038158
  H      4.51479535      3.58633253      1.69793304
  N      9.33521590      2.62597130      5.43946602
  C     10.17670985      3.59677196      5.09618484
  N      9.84571687      4.70318610      5.74972374
  C      8.77091525      4.43410667      6.53963381
  C      8.44825550      3.12708476      6.34364119
  C      9.35509679      1.26756268      4.96373060
  C      9.95242819      0.33292482      6.01088916
  C     10.48048513      5.97892704      5.58910636
  H     10.91204051      3.56940076      4.30665156
  H      8.29740215      5.20277076      7.11798807
  H      7.63856329      2.53748397      6.71967460
  H      8.31780192      0.98380693      4.74669134
  H      9.94690749      1.24018013      4.04767619
  H      9.95541584     -0.68501579      5.63181118
  H      9.36027734      0.35878762      6.92268971
  H     10.97557439      0.62230393      6.24724906
  H     11.30874467      6.08735570      6.29132262
  H      9.74336037      6.75992171      5.77967665
  H     10.86031011      6.04126508      4.56881154
  N      7.91817087      4.27284971      1.83334663
  C      8.38001577      5.49312751      1.59992493
  N      8.27955087      6.21674102      2.70319039
  C      7.73941870      5.43535070      3.67697800
  C      7.51717801      4.20919054      3.13583948
  C      7.88157576      3.19068816      0.88580041
  C      8.98741451      2.18438676      1.18589576
  C      8.66238662      7.58895790      2.85845772
  H      8.77910517      5.83724006      0.66828093
  H      7.55878008      5.82780886      4.65910493
  H      7.11128153      3.31390868      3.57007062
  H      6.90141152      2.71016703      0.94586258
  H      8.00382994      3.62047671     -0.11012878
  H      9.12274400      1.50821209      0.34610576
  H      8.72766062      1.60461564      2.06701635
  H      9.91787731      2.71669895      1.37275039
  H      9.73338821      7.69257173      2.68002809
  H      8.42533901      7.90170167      3.87406707
  H      8.11570033      8.20220606      2.14116667
 Cl      7.55345057      7.53282636      6.41387124
 Cl    -51.56695819     39.44282947     44.14726576
 Cl      6.06847447      1.42298494      4.65837733
 Cl     11.16886921      4.77162387      2.42541776
 Cl      5.95071253      6.46991941      0.45258310
