#B3LYP/6-31+G(d) OPT FREQ

62, Energy =    -96.27138225 au

0 1
  N      2.47652274      2.98368796      5.53419390
  C      1.46598018      2.28276716      6.04567340
  N      0.36683995      3.02349695      6.00896604
  C      0.67532802      4.22385991      5.44424725
  C      2.00183508      4.20123428      5.14836722
  C      3.82773728      2.52100082      5.33877472
  C      3.90584453      1.58764535      4.13394009
  C     -0.94544062      2.60881314      6.40312340
  H      1.52554677      1.28802667      6.43587704
  H     -0.07787154      4.98290017      5.34431094
  H      2.65486652      4.92815177      4.69549082
  H      4.45282130      3.40235654      5.18421111
  H      4.15199889      2.00110888      6.24369807
  H      4.85210465      1.05333252      4.13143967
  H      3.81885218      2.15760863      3.21510940
  H      3.08837551      0.87007639      4.16867508
  H     -1.28701343      1.82765295      5.71957069
  H     -1.60468124      3.47595201      6.36074865
  H     -0.92844980      2.20384865      7.41400682
  N      1.44676250      6.39340197      8.69088888
  C      0.94274909      6.75481681      7.51468461
  N      1.93684625      7.16315928      6.73336005
  C      3.10272772      7.05877288      7.43240838
  C      2.79347008      6.57089303      8.66528915
  C      0.70368020      5.84877425      9.79809063
  C      0.12847463      4.48914853      9.42149970
  C      1.80413433      7.66235011      5.39562568
  H     -0.09798484      6.66148049      7.21883754
  H      4.04446504      7.30524920      6.99037768
  H      3.38398763      6.36728565      9.54547146
  H      1.39353875      5.78285270     10.64731451
  H     -0.11357990      6.53074148     10.04543412
  H     -0.38786336      4.05949641     10.27548637
  H      0.92932162      3.81460217      9.12001355
  H     -0.57117708      4.59485167      8.60399368
  H      2.59898616      7.24209569      4.76732229
  H      1.89532340      8.75051604      5.38987625
  H      0.82945500      7.37980897      5.00763240
  N     -0.21699738      3.47608526      2.32453053
  C     -0.20952347      4.79402352      2.14002284
  N      1.04755035      5.20605195      2.02846081
  C      1.86108061      4.11533915      2.08333043
  C      1.06888375      3.02750297      2.26900680
  C     -1.37831546      2.63235649      2.45519388
  C     -1.88385624      2.22354755      1.07446151
  C      1.48475315      6.54528365      1.77268728
  H     -1.07441939      5.42378948      2.16024859
  H      2.92416055      4.22197929      2.01383846
  H      1.29495582      1.99097183      2.41884089
  H     -1.08098970      1.75891864      3.04261949
  H     -2.14773081      3.19260089      2.99064835
  H     -2.87578706      1.78423850      1.15000082
  H     -1.20960588      1.49845967      0.62456580
  H     -1.92362929      3.10083692      0.43127237
  H      2.49032176      6.66943161      2.17709540
  H      0.80262381      7.25069694      2.24473977
  H      1.47625030      6.72245843      0.69476234
 Cl     -0.83822625      5.20995773     -0.44827407
 Cl     -1.95617865      5.94520641      6.41940304
 Cl      3.36882763      6.00570250     11.82281316
 Cl      0.54670970      0.30085288      4.28469721
 Cl      4.31354163      6.14988745      3.78984783

