#B3LYP/6-31+G(d) OPT FREQ

62, Energy =    -96.25893015 au

0 1
  N      1.22801275      4.30465928      8.80601894
  C      1.76179341      3.41644380      7.96949756
  N      2.85153928      2.89344277      8.53166833
  C      2.96975588      3.40934588      9.79061946
  C      1.95563980      4.29338565      9.96181508
  C      0.02157111      5.06217172      8.59715760
  C     -1.17793075      4.29865155      9.14979448
  C      3.63361140      1.82708066      7.98038932
  H      1.44628678      3.24799925      6.96197397
  H      3.77178605      3.12101798     10.43808968
  H      1.71560676      4.94610678     10.77534207
  H      0.15059522      6.02798121      9.09510398
  H     -0.09820489      5.22152314      7.52289976
  H     -2.10294830      4.78460534      8.85250239
  H     -1.13311347      4.25795179     10.23492557
  H     -1.16171453      3.28121076      8.76374627
  H      4.52647080      1.69325652      8.58777219
  H      3.91613171      2.06153241      6.95366739
  H      3.02893017      0.91711687      7.98124935
  N      8.74137915      4.41321488      8.46629449
  C      8.81571206      3.38847356      9.31501694
  N      9.15530947      3.84773745     10.52116480
  C      9.23546227      5.21143800     10.44371230
  C      8.98050955      5.56393666      9.15854787
  C      8.36970828      4.34825673      7.07300644
  C      6.85755240      4.19862043      6.92926378
  C      9.16464155      3.05440948     11.71495986
  H      8.72863824      2.35618614      9.04819561
  H      9.46025902      5.81664329     11.29691654
  H      8.97329108      6.51736041      8.65599065
  H      8.70315080      5.27768563      6.60346252
  H      8.88314064      3.49699765      6.61743009
  H      6.60845904      3.85834010      5.92810634
  H      6.37465691      5.15623196      7.10223547
  H      6.48541551      3.48363831      7.65946779
  H      8.17446064      2.59638367     11.81331953
  H      9.36588693      3.69028048     12.57312742
  H      9.91595576      2.26618327     11.65257800
  N      4.77630828      7.82102799      8.52730286
  C      5.84852405      8.21376251      7.84048128
  N      5.67859499      9.48103423      7.46586798
  C      4.46281834      9.90220491      7.92728778
  C      3.89979028      8.85932526      8.59378090
  C      4.55341710      6.52414059      9.12687400
  C      5.60154618      6.21499580     10.18868016
  C      6.62308277     10.24443409      6.70053671
  H      6.74319403      7.65637580      7.60306348
  H      4.09648058     10.89237800      7.75177086
  H      2.95652212      8.74239889      9.11331388
  H      3.55035841      6.54704997      9.56475674
  H      4.58550538      5.76431491      8.34193382
  H      5.59636001      5.15197239     10.40542664
  H      5.39240259      6.76233055     11.10214774
  H      6.59486271      6.48053724      9.83568765
  H      6.87236146     11.16862527      7.22149380
  H      6.21059154     10.48687623      5.72043855
  H      7.52402875      9.63870415      6.57521664
 Cl      8.86017851      7.76509354      6.75965911
 Cl      1.49426544      7.64849745     10.27250769
 Cl      0.28546136      1.26696887      8.02344737
 Cl     19.99221823     -3.68666502    -32.40140894
 Cl      6.40565144      2.64245917     10.06612573

