62
Energy =    -96.25105079 au
  N      2.53773902      5.54515948      5.55511853
  C      1.58674506      4.73838422      5.09658219
  N      0.56585288      4.74118747      5.94165164
  C      0.87835943      5.55783011      6.98519681
  C      2.11292977      6.06850249      6.74263847
  C      3.76259505      5.84266118      4.85812045
  C      3.52002495      6.90572979      3.79104554
  C     -0.62782710      3.97705468      5.74526059
  H      1.60513167      4.21633517      4.16518449
  H      0.21495815      5.71126267      7.81110039
  H      2.71006357      6.74558738      7.31793226
  H      4.50266046      6.18447209      5.58580102
  H      4.11726974      4.91517556      4.40296705
  H      4.38027815      6.98394729      3.13253886
  H      3.33829997      7.87456657      4.25122577
  H      2.64211369      6.63978481      3.20575871
  H     -1.05031632      4.25124035      4.77703738
  H     -1.33885890      4.18909044      6.54019722
  H     -0.37157673      2.91614033      5.74694703
  N     -0.83019905      2.21937240      2.11734513
  C     -0.74202111      1.06722652      2.77195469
  N      0.48479436      0.95010273      3.26742697
  C      1.19658583      2.05994323      2.92185997
  C      0.36674255      2.86411698      2.20260782
  C     -2.02596466      2.70305267      1.47276520
  C     -2.65566410      3.82646035      2.28810670
  C      0.99334173     -0.11213370      4.08596150
  H     -1.55470687      0.34252271      2.78881565
  H      2.20701074      2.18803839      3.25254363
  H      0.51381190      3.85437531      1.81725718
  H     -1.75813331      3.06854200      0.47804239
  H     -2.70611005      1.84889929      1.38602970
  H     -3.50881761      4.23241794      1.75241812
  H     -1.93500278      4.62556400      2.45713946
  H     -2.99928805      3.44337869      3.24622271
  H      1.54074898      0.33627082      4.92114600
  H      1.67759363     -0.74046814      3.51381614
  H      0.16718256     -0.71719419      4.45091907
  N      8.15023663      2.62823856      8.03989543
  C      6.88036548      2.59952917      8.43473734
  N      6.20475839      3.54891163      7.79606142
  C      7.08303251      4.21255566      6.98470028
  C      8.30320285      3.63667497      7.13328189
  C      9.20903716      1.76513328      8.49462471
  C      9.68388154      0.85372829      7.36904560
  C      4.83067506      3.87508200      8.04307992
  H      6.45303203      1.89786640      9.11828657
  H      6.77906051      5.03554351      6.37185230
  H      9.25346058      3.81583008      6.64815424
  H     10.04163760      2.39167108      8.82235395
  H      8.83033179      1.19950374      9.34919274
  H     10.42222702      0.15190575      7.74749709
  H     10.14777759      1.46076562      6.59155773
  H      8.85032578      0.29709567      6.94548797
  H      4.65613619      4.91779170      7.78779335
  H      4.64254405      3.73230696      9.10773916
  H      4.15921530      3.24451630      7.45489315
 Cl      0.10232654      6.02799805      3.05731832
 Cl     -3.29680199     -0.47516217      1.90780056
 Cl      6.64695694      3.65287817     10.89647486
 Cl      2.50125844      2.31936555      5.86841968
 Cl     11.18925132      3.40036917      5.58428431
