62
Energy =    -96.28123617 au
  N      8.01153792      6.78919351      4.33811687
  C      8.44381008      6.86862840      3.08163307
  N      7.58269074      7.59410780      2.37963161
  C      6.57235850      7.98734486      3.20374069
  C      6.84374906      7.48358047      4.43797875
  C      8.65762732      6.07710763      5.41634552
  C     10.15348399      6.35751797      5.44460815
  C      7.66573410      7.87715446      0.97729205
  H      9.33332622      6.37855577      2.68614943
  H      5.73378415      8.54336434      2.84169264
  H      6.32130649      7.55801723      5.37402061
  H      8.15736236      6.38222729      6.34091587
  H      8.49641832      5.00243927      5.27205297
  H     10.60242195      5.86602347      6.30359595
  H     10.34433559      7.42462065      5.51672230
  H     10.62571360      5.97460961      4.54289584
  H      8.50942934      7.33795898      0.55366514
  H      7.79234748      8.94816429      0.81226950
  H      6.72523323      7.55229427      0.51718020
  N      5.10485730      4.14635548      8.99627463
  C      6.19200019      4.03811295      8.24164377
  N      7.22649569      3.71159416      9.00910717
  C      6.77753273      3.56773709     10.28940359
  C      5.44803099      3.84313249     10.28120409
  C      3.79608930      4.49038321      8.50565854
  C      3.05265812      3.24178537      8.04266071
  C      8.53483888      3.41799994      8.50343799
  H      6.24742565      4.26170336      7.20041074
  H      7.42503236      3.28807985     11.09521208
  H      4.73520081      3.85346524     11.08002891
  H      3.25158311      4.99987051      9.30488234
  H      3.94298677      5.19177858      7.68133394
  H      2.18910983      3.51486541      7.44426880
  H      2.71952491      2.65281237      8.89478320
  H      3.72030219      2.62435312      7.44646806
  H      8.44473260      2.59058282      7.79443844
  H      9.19265389      3.13551688      9.32235577
  H      8.93678702      4.28901457      7.98582583
  N      6.00757156      4.06771164      3.89945842
  C      6.23691889      4.52269891      2.66947296
  N      7.33329227      3.94202012      2.19562013
  C      7.82085699      3.09703137      3.14574420
  C      6.98637865      3.17361453      4.21810176
  C      4.93846353      4.45338508      4.79297079
  C      3.66152251      4.79362963      4.04229814
  C      7.91506636      4.17417929      0.90593782
  H      5.64047679      5.24802957      2.11609251
  H      8.72280442      2.54116307      2.99751586
  H      6.97178534      2.63641100      5.15155157
  H      4.77902363      3.60936232      5.46959207
  H      5.26457774      5.31878270      5.38216648
  H      2.88830868      5.06381881      4.75590237
  H      3.31859296      3.93908629      3.46290752
  H      3.81226062      5.63054964      3.36556646
  H      7.94399463      3.24480871      0.33678103
  H      8.94355982      4.53680669      1.03991320
  H      7.31354187      4.90864337      0.37683662
 Cl    -14.86704018     39.71943878     -5.87954331
 Cl      6.15263489      6.76168057      7.61024870
 Cl      4.65416012      6.64432617      0.92817849
 Cl     10.87230885      5.15681520      2.00488911
 Cl      6.05428901      1.64934216      7.03484579
