62
Energy =    -96.29679381 au
  N      5.04129628      5.78321743      4.61525517
  C      4.84421652      5.34184537      3.37891746
  N      4.61697278      4.03337256      3.42261607
  C      4.66269855      3.63209178      4.72407927
  C      4.92628275      4.73560630      5.47490866
  C      5.35491390      7.14279200      4.97310657
  C      4.09899588      7.89603824      5.39768674
  C      4.42323086      3.16650301      2.29707698
  H      4.99891750      5.95244923      2.49318774
  H      4.55021301      2.60347265      4.99580659
  H      5.10769511      4.85277061      6.52397401
  H      6.07317609      7.10431224      5.79735095
  H      5.80332131      7.61407818      4.09602196
  H      4.36161462      8.91369422      5.67129416
  H      3.63711631      7.41444179      6.25731329
  H      3.38115300      7.93012055      4.58042634
  H      3.38280600      2.84214921      2.23587482
  H      5.06143640      2.28622754      2.42939861
  H      4.69411999      3.69634484      1.38706145
  N      8.86986034      2.80064604      6.02267324
  C      9.24984497      2.17057835      4.91679593
  N     10.36704888      2.72803526      4.46348573
  C     10.71236590      3.74130762      5.30434887
  C      9.77215273      3.78339277      6.28815378
  C      7.68235872      2.50868710      6.78346315
  C      7.99396100      1.56429644      7.93938914
  C     11.07727655      2.37873255      3.26962126
  H      8.66232210      1.41014099      4.42759679
  H     11.54897191      4.37536908      5.09405186
  H      9.63561661      4.46230274      7.10544818
  H      7.29510480      3.46035509      7.16043880
  H      6.96191653      2.05672276      6.09923378
  H      7.08659425      1.37123039      8.50390881
  H      8.72866220      2.00903045      8.60735621
  H      8.38063773      0.61710974      7.56767095
  H     12.00279935      1.85472014      3.51418775
  H     11.32515126      3.31263823      2.74593470
  H     10.45071839      1.74296174      2.64954910
  N      8.22342107      4.87836212      1.96133248
  C      8.70506777      6.06903281      2.29600277
  N      8.56656975      6.24331478      3.60049937
  C      7.98526245      5.12897932      4.12193311
  C      7.77047104      4.26693491      3.09384678
  C      8.14958659      4.37085202      0.61624093
  C      9.49047723      3.79952323      0.16427194
  C      9.03047133      7.36256934      4.36508568
  H      9.12385653      6.78059081      1.61539669
  H      7.75055322      5.07365462      5.16764228
  H      7.35157315      3.27817543      3.08981141
  H      7.37379421      3.60242613      0.58980568
  H      7.84446679      5.20225181     -0.02449761
  H      9.52221892      3.71916602     -0.91872665
  H      9.64575918      2.81321505      0.59248180
  H     10.29744322      4.44718989      0.49877635
  H     10.11896235      7.40924514      4.29529336
  H      8.73295349      7.22025953      5.40234956
  H      8.60343321      8.28649577      3.97515550
 Cl      7.35406373      5.81524095      7.41105612
 Cl    -55.59301597     41.81913368     47.45398992
 Cl      6.56531981      1.02787097      3.64604441
 Cl     11.49753218      5.51800244      2.60955139
 Cl      6.23063555      7.26607488      1.38558684
