62
Energy =    -96.26558497 au
  N      6.34944058      3.22368106      3.39981093
  C      6.51078673      3.16596595      4.71597842
  N      7.49383800      3.98274173      5.06820649
  C      7.96635962      4.60123009      3.95292835
  C      7.24651760      4.12470256      2.90220908
  C      5.34354332      2.49768791      2.66498543
  C      4.21489667      3.43383222      2.24447672
  C      7.98206779      4.23875186      6.39222151
  H      5.96002878      2.48423520      5.34262734
  H      8.80673112      5.27159809      4.02081537
  H      7.30305914      4.35630769      1.85870345
  H      5.81141497      2.03493671      1.79046355
  H      4.97231633      1.71277108      3.33219110
  H      3.36786062      2.85978650      1.87888284
  H      4.54468214      4.11432762      1.46117276
  H      3.90813793      4.02547152      3.10403596
  H      7.32883002      4.95558070      6.89216755
  H      8.98763029      4.66687707      6.29933888
  H      8.00781387      3.31372718      6.96512844
  N      3.37230366      2.13015993      7.23657004
  C      2.97489513      2.29508826      5.98088386
  N      1.99955174      1.44121096      5.71342448
  C      1.78958671      0.67615881      6.81614936
  C      2.65478430      1.10321823      7.77224658
  C      4.44044175      2.87062080      7.85823632
  C      4.03763548      3.39960365      9.22842228
  C      1.23782443      1.35045578      4.50465477
  H      3.37312999      3.05002953      5.32559107
  H      1.03326659     -0.07887344      6.84731028
  H      2.80900842      0.74771646      8.76909211
  H      5.31656571      2.21898642      7.93581399
  H      4.67480345      3.70313168      7.18937914
  H      4.83154731      4.03061032      9.61875545
  H      3.86139780      2.59071126      9.93362816
  H      3.13094504      3.99395418      9.14548593
  H      0.18361274      1.48212159      4.76808668
  H      1.38487240      0.37390956      4.04291899
  H      1.55506098      2.12883111      3.81550575
  N      0.50949683      4.82716590      5.07027443
  C      1.28814888      5.37528151      4.14398114
  N      0.64510238      5.36396155      2.97998045
  C     -0.57873561      4.79777257      3.16805417
  C     -0.66487881      4.46198727      4.48557046
  C      0.82145366      4.71809279      6.47223998
  C      0.21207529      5.88529972      7.24298295
  C      1.13160810      5.84477026      1.71813778
  H      2.29996023      5.70166247      4.32558800
  H     -1.27760446      4.74217684      2.35103478
  H     -1.42134358      3.94922500      5.04536374
  H      0.39628554      3.77268832      6.83142385
  H      1.90816853      4.72670546      6.57131695
  H      0.44158091      5.78103079      8.29978076
  H     -0.86894453      5.89040146      7.12395611
  H      0.61466492      6.83282073      6.88818004
  H      1.65366890      6.79009834      1.85302988
  H      0.26577201      5.97252712      1.05299261
  H      1.81806724      5.12075668      1.27804598
 Cl      4.98514548      0.36710064      5.32007434
 Cl      4.31133919      5.20813664      5.29215250
 Cl     10.81038798      5.57590158      5.25561894
 Cl     -1.02051736      1.98279102      6.83393950
 Cl     -1.78082215      5.81161314      0.25332599
