#B3LYP/6-31+G(d) OPT FREQ

62, Energy =    -96.25559711 au

0 1
  N      7.08223109      1.49368515      2.40180252
  C      6.86423602      2.73182922      1.96939537
  N      8.03571024      3.31965096      1.74490458
  C      9.03184282      2.44713000      2.04923229
  C      8.43082582      1.29711284      2.45933886
  C      6.06602908      0.51607110      2.70596447
  C      5.13980456      0.31297398      1.51385877
  C      8.25659812      4.65156909      1.25763189
  H      5.88370467      3.16145055      1.78861950
  H     10.06287976      2.72310808      1.88706528
  H      8.85670766      0.37200076      2.78900135
  H      6.57350902     -0.41580131      2.96770418
  H      5.48568367      0.84536150      3.57905352
  H      4.40935958     -0.45495763      1.75092878
  H      5.70504371      0.00251752      0.63530483
  H      4.61546156      1.23841877      1.28713043
  H      9.29573080      4.71217044      0.91468131
  H      8.09869241      5.37688558      2.05678472
  H      7.56578037      4.86758279      0.44475531
  N      1.37874742      3.05636678      7.18256326
  C      1.97132602      2.97136416      5.99319230
  N      1.34141611      3.77317589      5.14178115
  C      0.31892384      4.38189719      5.80989029
  C      0.34401762      3.93259995      7.09417464
  C      1.74713810      2.35044262      8.38734465
  C      3.22892991      2.51887384      8.69303933
  C      1.64748121      3.95784481      3.75161373
  H      2.82480088      2.34546331      5.75956000
  H     -0.34218644      5.06921090      5.32453691
  H     -0.25613316      4.15553597      7.96430657
  H      1.11976844      2.75482536      9.19112121
  H      1.51838935      1.28905829      8.25273586
  H      3.46257500      2.02281091      9.63091853
  H      3.47783238      3.57320216      8.78788576
  H      3.83720303      2.07924805      7.90631753
  H      1.66503076      5.01999549      3.51055499
  H      0.88368375      3.47610694      3.13093518
  H      2.62137953      3.52971505      3.52424442
  N      1.50309547      0.78152406      0.12439950
  C      1.69532947      1.23072037      1.36826230
  N      1.70850804      0.18986055      2.20359205
  C      1.41352865     -0.93293459      1.48470939
  C      1.29187981     -0.56695156      0.18462237
  C      1.42050840      1.61276893     -1.04727753
  C      2.80437569      1.89582075     -1.61988529
  C      1.77725962      0.27516231      3.63300079
  H      2.04733387      2.22146562      1.59215690
  H      1.31357040     -1.89352065      1.94751317
  H      1.06751733     -1.14857028     -0.68606790
  H      0.78631700      1.10413794     -1.78006278
  H      0.93920625      2.54650875     -0.74838610
  H      2.71737953      2.50170666     -2.51770493
  H      3.31803239      0.96818004     -1.86615840
  H      3.39283745      2.44283296     -0.88557104
  H      2.74959146      0.64438493      3.97126315
  H      1.61464800     -0.71112440      4.06148443
  H      0.99266161      0.94996514      3.97662640
 Cl     11.51278004      4.04365163      0.74066069
 Cl      4.45777073      0.90287236      5.58698535
 Cl      3.91360291      3.65183007      1.10840139
 Cl     -0.61396627      2.08658953      1.88219552
 Cl     -0.63953225      3.98485718     10.18600065

