#B3LYP/6-31+G(d) OPT FREQ

62, Energy =    -96.26181413 au

0 1
  N      9.28887596      1.73215216      9.01802960
  C      9.62533459      2.77138687      9.77375867
  N     10.36018887      2.34264778     10.79396626
  C     10.50813054      0.99476026     10.68968884
  C      9.83584876      0.60966727      9.57132036
  C      8.52216196      1.81284472      7.79776625
  C      9.42069125      1.64122996      6.57870082
  C     10.92714305      3.13224657     11.85158399
  H      9.28340314      3.77725614      9.57197849
  H     11.09643442      0.46097289     11.42577071
  H      9.70169609     -0.36095952      9.14116636
  H      7.75490831      1.03557545      7.81582200
  H      8.04971634      2.80142111      7.78476282
  H      8.81880813      1.66679978      5.67517909
  H      9.95392122      0.69322792      6.61707579
  H     10.14573390      2.44934740      6.53343476
  H     11.56268560      3.91460892     11.43833165
  H     11.52178070      2.45813587     12.48180218
  H     10.13711431      3.59416876     12.44294812
  N      3.00477102      6.51112893      1.63754098
  C      2.63370565      5.26936220      1.34110617
  N      1.31484016      5.24227031      1.18645260
  C      0.82753862      6.49787521      1.38404347
  C      1.89287968      7.29742619      1.66565118
  C      4.36085662      6.96909106      1.79908548
  C      4.89514547      7.51020245      0.47626553
  C      0.50654797      4.09527160      0.88691990
  H      3.30532040      4.42037394      1.30929950
  H     -0.22048061      6.69790047      1.25025906
  H      1.95152230      8.33315067      1.93257146
  H      4.35922319      7.76047794      2.55779241
  H      4.96503552      6.12341715      2.13014182
  H      5.90410061      7.88677822      0.62036263
  H      4.26817628      8.32551012      0.12245114
  H      4.91650203      6.72447948     -0.27674351
  H      1.01247068      3.46136507      0.16163088
  H     -0.45252132      4.45425953      0.48919692
  H      0.32426710      3.51768944      1.79377685
  N      5.22060938      4.61051377      5.33570376
  C      5.57983519      5.59281635      6.15579163
  N      4.75362930      6.61819192      5.98180751
  C      3.83836412      6.28095427      5.03185654
  C      4.13297351      5.01549273      4.62544215
  C      5.85830616      3.32495441      5.21033123
  C      5.26286895      2.33400008      6.20496103
  C      4.81263261      7.89358499      6.63433230
  H      6.39594079      5.53912051      6.86300719
  H      3.11493412      6.99594052      4.69028272
  H      3.71218748      4.38662200      3.86600698
  H      5.69453568      2.98571168      4.18049691
  H      6.92511873      3.45445312      5.40175414
  H      5.73432085      1.36330421      6.07920043
  H      4.19507104      2.22355787      6.02979611
  H      5.42458694      2.67961148      7.22443285
  H      4.13956965      7.91338329      7.49296910
  H      4.49052664      8.65278185      5.91072635
  H      5.82840357      8.08684395      6.97146889
 Cl      3.49586187      9.36623302      4.00102688
 Cl      4.78907119      2.99150781      2.05514732
 Cl     -2.12671259      5.82274066      0.01800765
 Cl      7.77875176      4.99835714      8.49503132
 Cl     12.44555381      0.51426022     13.16823823

