#B3LYP/6-31+G(d) OPT FREQ

62, Energy =    -96.29266329 au

0 1
  N      4.28738414      5.62508611      3.19123549
  C      4.49962369      4.34871638      2.88665769
  N      4.67562019      3.65925088      4.00660150
  C      4.56484243      4.51471690      5.05835769
  C      4.31786775      5.75190059      4.54602343
  C      4.07460292      6.70552096      2.26387956
  C      2.59370273      7.05402883      2.16238677
  C      5.00705107      2.26592217      4.07905320
  H      4.62465251      3.93342600      1.90098121
  H      4.72791781      4.18389334      6.06490047
  H      4.24105194      6.71147653      5.01484392
  H      4.64568928      7.56394854      2.64458609
  H      4.46250665      6.39941093      1.29074911
  H      2.46024029      7.87503053      1.46406961
  H      2.21413840      7.36339623      3.13283213
  H      2.01640851      6.19869609      1.81327121
  H      4.10402088      1.66169701      4.17973279
  H      5.64415668      2.10675488      4.95163593
  H      5.52874203      1.99084889      3.16293090
  N      9.98232411      2.92061058      5.03438179
  C     10.19481368      3.20147116      3.75011494
  N      9.47248071      2.37717366      2.99966810
  C      8.77819603      1.54956125      3.82894532
  C      9.10129198      1.88797199      5.10784858
  C     10.62586549      3.64210206      6.11093796
  C      9.98691787      3.37716787      7.46156470
  C      9.42548898      2.35207898      1.56747656
  H     10.76860460      4.05997337      3.42594661
  H      8.10272340      0.80934249      3.45505715
  H      8.71220001      1.51262052      6.03095974
  H     11.68390340      3.35453532      6.12738675
  H     10.58744739      4.70203377      5.83862708
  H     10.33950673      4.11137401      8.18026572
  H     10.24552210      2.38591577      7.82998031
  H      8.90335489      3.44524176      7.39751956
  H      8.38639245      2.46345431      1.22812629
  H      9.80972709      1.40141668      1.19441168
  H     10.02928562      3.16679518      1.17663419
  N      7.89958238      6.25613485      2.80034577
  C      8.18031038      6.89873109      3.92621978
  N      7.95871107      6.09178857      4.95278585
  C      7.53161552      4.89068821      4.47235080
  C      7.49740490      4.98982879      3.11788474
  C      8.02112445      6.79495917      1.47165133
  C      9.34203412      6.37221990      0.83541679
  C      8.05412940      6.45025506      6.33658798
  H      8.55255724      7.89937267      3.99366805
  H      7.28535940      4.08342772      5.13809526
  H      7.20548686      4.28136422      2.36529337
  H      7.17848040      6.43125557      0.87790745
  H      7.95664887      7.88176757      1.55198995
  H      9.55519531      6.98388193     -0.03687093
  H      9.29097765      5.33075341      0.52921681
  H     10.14638610      6.48648309      1.55893411
  H      7.72437228      5.60641469      6.93864646
  H      7.40842345      7.31045251      6.52157372
  H      9.08321136      6.71236219      6.58553547
 Cl      5.94026056      8.51219491      4.21671391
 Cl    -52.66634680     40.83830545     44.99392867
 Cl      6.63275771      2.75032357      6.98745975
 Cl     11.07391727      6.17400147      3.92215217
 Cl      6.22921137      2.68727236      0.81687284

