#B3LYP/6-31+G(d) OPT FREQ

62, Energy =    -95.86908793 au

0 1
  N      8.38957674      0.87329169      1.71415319
  C      9.55331477      0.21242701      1.70385556
  N      9.39025850     -0.90713037      0.99187999
  C      8.10910729     -0.94823783      0.51622004
  C      7.47603735      0.17763620      0.97107384
  C      8.16123054      2.18112095      2.33934676
  C      7.78293204      3.22690642      1.30726292
  C     10.45458812     -1.82825980      0.61016650
  H     10.48076158      0.55229627      2.12805203
  H      7.75984322     -1.74288788     -0.11712124
  H      6.47861102      0.53708987      0.79822250
  H      7.38030062      2.05317590      3.08839637
  H      9.08572800      2.44408440      2.84814926
  H      7.63065932      4.18021567      1.81145806
  H      6.86601681      2.95907745      0.78646817
  H      8.56923933      3.33729650      0.56705694
  H     10.69304688     -1.66364847     -0.43711770
  H     10.11395630     -2.84656172      0.77676675
  H     11.33272523     -1.61466759      1.20888830
  N     11.26682300      7.40313309      6.53950420
  C     11.03610756      6.44441160      5.63465181
  N     11.50210663      6.86477155      4.45437741
  C     12.06476827      8.10061102      4.61376158
  C     11.91784129      8.44126367      5.93195356
  C     10.95892036      7.31124138      7.97134854
  C     12.21988699      7.38333863      8.81202637
  C     11.58527347      6.05737925      3.24269135
  H     10.61772098      5.47366278      5.83012753
  H     12.53987001      8.62117580      3.80267224
  H     12.24787842      9.31010265      6.47059828
  H     10.26889918      8.12018746      8.20962109
  H     10.44194214      6.36519594      8.11437608
  H     11.94708165      7.30403066      9.86344719
  H     12.74684433      8.32293898      8.65984157
  H     12.89707557      6.57388133      8.55793088
  H     12.61936705      5.75528987      3.10071897
  H     11.23328370      6.64893782      2.40192614
  H     10.97413349      5.17121253      3.37087351
  N      5.31744495     11.18990455     11.46497457
  C      5.21423518     10.78208752     10.19447571
  N      5.74293103      9.55753550     10.10582846
  C      6.16547492      9.16548547     11.34560427
  C      5.89561296     10.19620031     12.20587358
  C      4.80304693     12.45829570     11.99412948
  C      3.72790499     12.22416024     13.03874638
  C      5.69069448      8.69781792      8.92890911
  H      4.72586915     11.30994030      9.39542538
  H      6.59191466      8.19544370     11.52377100
  H      6.04217952     10.27799246     13.26689766
  H      5.64965018     13.00872871     12.40349880
  H      4.41317218     13.01096518     11.14249608
  H      3.37003277     13.18809766     13.39784296
  H      4.11159307     11.65876949     13.88539261
  H      2.89562031     11.67074461     12.61518604
  H      4.93625374      7.93346122      9.09426232
  H      6.66985125      8.25214300      8.77610086
  H      5.40354180      9.29620532      8.07176848
 Cl      6.22359455      0.97844897      7.84295575
 Cl      1.75526824      0.17738073      4.78615874
 Cl      9.03302627      1.10649563      9.63284560
 Cl      6.30014069      8.44063889      2.28147057
 Cl      4.27686874      8.95445302      4.34778835

