62
Energy =    -96.23545256 au
  N      8.85057628      3.90984831      7.83875777
  C      7.82191899      3.10260076      8.14943553
  N      8.01893730      1.91424670      7.54039713
  C      9.09402832      2.06552005      6.68485525
  C      9.61380851      3.29603162      6.87503146
  C      9.03899931      5.25827132      8.30093692
  C     10.34239664      5.37285931      9.08748394
  C      7.02321191      0.88201113      7.45787587
  H      7.23584622      3.20957262      9.03190977
  H      9.39518085      1.27148078      6.03113810
  H     10.44553139      3.80538178      6.42247615
  H      9.08287499      5.91902492      7.43312306
  H      8.16254211      5.53341419      8.89819115
  H     10.42587426      6.36334848      9.52609994
  H     11.17810120      5.23322208      8.40794866
  H     10.38548007      4.62710530      9.87768142
  H      6.55637564      0.73912951      8.43499312
  H      7.48400932     -0.04147854      7.12720681
  H      6.24160406      1.19490566      6.75588897
  N     11.80690098      8.91923807      3.43876954
  C     11.61442843      7.73761801      2.84562009
  N     12.69847504      6.98770439      3.00182410
  C     13.65410424      7.74528306      3.61874848
  C     13.10221028      8.95523957      3.88213454
  C     10.84468516      9.98812012      3.46933550
  C     10.07350491      9.98603490      4.78508439
  C     12.85564536      5.61514544      2.63246738
  H     10.69005707      7.39720310      2.44406018
  H     14.63771160      7.37238203      3.82424894
  H     13.52093493      9.82301829      4.34849479
  H     11.36959448     10.93646531      3.33631334
  H     10.17681283      9.84429620      2.61821643
  H      9.32238893     10.77165966      4.78071203
  H     10.75068869     10.14945861      5.62046161
  H      9.57810683      9.02989773      4.93161783
  H     13.63630797      5.50551106      1.87352970
  H     11.91163977      5.24449945      2.24336847
  H     13.11681418      5.04967699      3.52810168
  N     -4.60119046      2.46951166      5.49585292
  C     -4.08088944      2.46846683      4.27383955
  N     -2.84077162      2.93849777      4.33520405
  C     -2.56361344      3.24969935      5.63728288
  C     -3.67261515      2.95050188      6.36668946
  C     -5.90998473      1.99467000      5.87207070
  C     -6.01279099      0.49079686      5.64639923
  C     -1.97588553      3.07989258      3.19894352
  H     -4.52163274      2.14113810      3.33429880
  H     -1.61823997      3.64971398      5.94147718
  H     -3.91857482      3.04430221      7.41558262
  H     -6.04190282      2.24099583      6.93536350
  H     -6.65920011      2.51616521      5.27213563
  H     -7.00258155      0.14671942      5.93294186
  H     -5.27858022     -0.02700229      6.25862621
  H     -5.84113958      0.24488202      4.60014891
  H     -1.73438369      4.12992668      3.03190371
  H     -2.50706955      2.67982250      2.32785954
  H     -1.05021284      2.52523198      3.35512484
 Cl     11.86268365      8.58159694      0.42697357
 Cl     12.10522825      5.42708023      5.85060714
 Cl     -4.35063420      1.70852298      1.26050310
 Cl     -5.49979286      2.94726322      9.01818348
 Cl      5.98268630      4.00513902      6.99573052
