62
Energy =    -96.25689039 au
  N      8.53928023      6.29989336      3.91730781
  C      8.77269961      7.60741172      3.80935005
  N      9.63859128      7.97340531      4.74599532
  C      9.97649402      6.87179980      5.46854490
  C      9.29642518      5.81708429      4.93742808
  C      7.68233304      5.52508358      3.05338454
  C      8.22748897      5.52805482      1.63114904
  C     10.04074313      9.32357964      5.01682571
  H      8.32768346      8.28851890      3.10123559
  H     10.66412667      6.91313794      6.28591977
  H      9.31824890      4.78029557      5.19442252
  H      7.67852146      4.50234876      3.43253009
  H      6.66635393      5.93311160      3.10513776
  H      7.61397563      4.89668728      0.99423831
  H      9.24135805      5.13017422      1.66529055
  H      8.25040916      6.53536015      1.22355263
  H     11.12692046      9.39990733      5.03589072
  H      9.63351414      9.61780783      5.98928186
  H      9.63348585      9.97245153      4.24372246
  N      5.44034834      7.68500250      6.32229534
  C      6.25368032      8.58575660      5.77986323
  N      5.66190473      9.77571919      5.77966044
  C      4.45456068      9.64046686      6.39880601
  C      4.31464927      8.33172869      6.73458285
  C      5.75044526      6.29886207      6.56029576
  C      6.26514550      6.10767929      7.98191434
  C      6.31950753     10.99139239      5.40064025
  H      7.18113024      8.37709753      5.29350355
  H      3.79889292     10.47164612      6.55913796
  H      3.50530458      7.81540382      7.20717455
  H      4.84879881      5.71156818      6.37169687
  H      6.51524070      6.00022104      5.84243846
  H      6.64819891      5.09949824      8.10828367
  H      5.47330560      6.28020020      8.70741183
  H      7.06623328      6.81987426      8.16696517
  H      7.09048058     11.20456501      6.14499103
  H      5.60125691     11.80622075      5.35948099
  H      6.80423726     10.86434516      4.42865019
  N      4.44509974      8.71800988      1.87562409
  C      3.28136245      8.13656330      2.16474432
  N      2.55662095      8.97015616      2.92253958
  C      3.33862792     10.06490292      3.20069656
  C      4.50851062      9.91113559      2.53629257
  C      5.50865571      8.15244771      1.08516158
  C      5.23105605      8.29538031     -0.40703700
  C      1.34396173      8.59148370      3.58695950
  H      2.90628621      7.24285828      1.71197216
  H      2.99077149     10.85646969      3.83058006
  H      5.40496090     10.50297780      2.49578228
  H      6.42163036      8.69374370      1.35244594
  H      5.60775964      7.09948096      1.35550343
  H      6.06073968      7.87541984     -0.96787779
  H      5.13325471      9.34551052     -0.67230061
  H      4.31858700      7.77256624     -0.68949465
  H      1.00707947      9.40405532      4.22621060
  H      1.55560946      7.70495637      4.19215493
  H      0.56689846      8.34935919      2.86030601
 Cl    -26.39188801     -0.42369117      7.52542412
 Cl     11.01630571      4.41416120      3.18249380
 Cl      3.88377087      6.47718495      3.94909072
 Cl      7.72679055     10.39801941      2.35830915
 Cl      7.96444486      9.14459470      7.69825719
