#B3LYP/6-31+G(d) OPT FREQ

62, Energy =    -96.27023648 au

0 1
  N      9.83282373      9.35150188     10.07694856
  C      8.62475844      9.18040322     10.60887601
  N      8.31841713     10.25455794     11.33635608
  C      9.36764251     11.12965416     11.25965861
  C     10.31397117     10.56271883     10.46481739
  C     10.51855386      8.45763711      9.17631453
  C      9.87903907      8.50856215      7.79225541
  C      7.09449076     10.44272412     12.06194800
  H      7.96982118      8.33160816     10.50078943
  H      9.35799992     12.07257140     11.76501163
  H     11.31381941     10.85777706     10.16387493
  H     11.56206043      8.80422513      9.12824963
  H     10.47494671      7.44394042      9.58260732
  H     10.38474867      7.81133710      7.13066636
  H      9.98277193      9.50650328      7.37489035
  H      8.82152147      8.25059971      7.83872004
  H      6.57597254     11.33263849     11.70356373
  H      7.29696481     10.55376902     13.12786007
  H      6.46206553      9.56761540     11.90219268
  N      6.20259535      4.25186662      9.16814977
  C      5.64206332      3.21588573      8.55270933
  N      4.99195510      2.48498224      9.45223242
  C      5.15320341      3.06190990     10.67630099
  C      5.91978139      4.17184255     10.49706926
  C      6.99602872      5.26850633      8.52398216
  C      8.47593344      4.90462883      8.57945780
  C      4.22479372      1.30022045      9.19911726
  H      5.62509628      3.10062371      7.47145385
  H      4.66377187      2.66874641     11.54352421
  H      6.24236621      4.92821463     11.18373353
  H      6.66051466      5.33679821      7.48757940
  H      6.80903121      6.21009498      9.04590425
  H      9.06323086      5.67904475      8.09633898
  H      8.65063928      3.96456326      8.06042846
  H      8.80636699      4.80532425      9.61202474
  H      3.30349738      1.36295800      9.79120215
  H      4.78156222      0.41428920      9.50809055
  H      4.00298009      1.23418558      8.13693125
  N      2.70034734      4.52221443      7.87460822
  C      2.38946061      4.46996788      9.16647823
  N      2.96295112      5.49364070      9.78842503
  C      3.64751471      6.22952524      8.86904870
  C      3.48199405      5.61787984      7.66455381
  C      2.28183366      3.59751774      6.85265531
  C      1.10350280      4.15762805      6.06357590
  C      2.89281775      5.74470604     11.19915169
  H      1.87201689      3.67183410      9.68636285
  H      4.22164718      7.08826778      9.15480192
  H      3.90226368      5.82423256      6.70167847
  H      3.14554920      3.44089692      6.19189074
  H      2.00078438      2.66192594      7.33845316
  H      0.81194897      3.44856174      5.29454660
  H      1.38097988      5.09182608      5.58212162
  H      0.25130486      4.33599595      6.71741057
  H      3.83196111      6.18889801     11.52749246
  H      2.71312872      4.79847954     11.70923732
  H      2.07837798      6.43604874     11.42333106
 Cl      5.91803927      7.45936475     10.99672050
 Cl    -18.79925469     18.96840470    -17.00509543
 Cl      5.27920508      3.83828105      5.52265828
 Cl      1.96375423      2.29788770     11.35990935
 Cl     13.25990319     10.27604865      9.41856152

