62
Energy =    -96.25462826 au
  N      1.20312330      2.38059238      1.35686865
  C      0.99053731      1.12417892      0.96848707
  N      0.77925883      1.11028974     -0.35173009
  C      0.76171198      2.40941749     -0.78758852
  C      1.02982900      3.20041986      0.27907270
  C      1.43855135      2.84200376      2.70136939
  C      0.10925602      3.14790784      3.38720799
  C      0.36001313     -0.05586186     -1.07193641
  H      1.15871656      0.25878981      1.57460478
  H      0.56513131      2.66157158     -1.80859217
  H      1.17786969      4.25919533      0.36334244
  H      1.97349557      2.05850031      3.24302847
  H      2.05912328      3.74132170      2.62593582
  H      0.27159312      3.36014682      4.44111532
  H     -0.55535297      2.29186811      3.28651282
  H     -0.36167780      4.00939890      2.91916429
  H      0.13707138      0.20638358     -2.10367306
  H     -0.53745080     -0.43809072     -0.57567087
  H      1.13680679     -0.82177860     -1.04437655
  N      2.95311208      6.13148632      5.41084761
  C      2.34462555      6.17560842      6.59695658
  N      1.03332391      6.30694712      6.40180486
  C      0.80489453      6.34085550      5.05465848
  C      2.00800318      6.23185138      4.43164913
  C      4.36559127      5.94820238      5.19198577
  C      4.63577036      4.63527101      4.46702617
  C      0.05734014      6.36832516      7.45305800
  H      2.78679582      6.13690736      7.58496442
  H     -0.17818466      6.43709735      4.64318742
  H      2.26538065      6.17774555      3.38073708
  H      4.73385268      6.77380352      4.57772920
  H      4.85681138      5.97235931      6.16813581
  H      5.70637558      4.48021392      4.38435921
  H      4.20939433      4.67567245      3.46537023
  H      4.20030004      3.80028389      5.01014931
  H     -0.62563935      5.52180410      7.38323234
  H     -0.51621222      7.29404263      7.38885776
  H      0.59151872      6.33081278      8.40716954
  N      5.55141622      7.76977384     10.14440991
  C      4.44510117      8.51517525     10.09137381
  N      4.17759014      8.79700921      8.81559605
  C      5.19445055      8.30542546      8.04738074
  C      6.05036316      7.65856660      8.87497622
  C      6.10552893      7.19612800     11.34107200
  C      5.64190656      5.75050242     11.50323663
  C      3.05859977      9.58315074      8.39602616
  H      3.75459540      8.64537914     10.89738735
  H      5.22980999      8.45679177      6.98782287
  H      6.96260541      7.13799407      8.66752989
  H      7.19691231      7.25364256     11.28665790
  H      5.76703122      7.80801148     12.17926902
  H      5.90816679      5.37250451     12.48635969
  H      6.09520650      5.11549968     10.74540949
  H      4.56243054      5.69999850     11.38229951
  H      3.09850918      9.73860535      7.32022905
  H      3.09733137     10.54384834      8.91380316
  H      2.13868013      9.06061138      8.66452068
 Cl     39.63533803    -15.10925663    -11.15086694
 Cl     -1.37143612      0.43031237      1.63157188
 Cl      2.50335420      6.30964186      9.73306663
 Cl      3.09081686      5.53524572      1.47915399
 Cl      5.31326333     10.71118292     10.81403763
