#B3LYP/6-31+G(d) OPT FREQ

62, Energy =    -96.29593588 au

0 1
  N      4.35725592      5.61170827      3.98615665
  C      4.18336132      4.52531537      3.24341063
  N      4.45506144      3.45325306      3.98032531
  C      4.79890974      3.86768072      5.23212658
  C      4.73392328      5.22675208      5.23551834
  C      4.20156076      6.96591544      3.52041509
  C      2.78814421      7.47373237      3.78298954
  C      4.43910511      2.09125623      3.53173586
  H      4.01660131      4.55067944      2.17413970
  H      5.11326987      3.17324434      5.98339502
  H      4.98507815      5.94426294      5.99025498
  H      4.93370818      7.58045860      4.05213869
  H      4.41285889      6.96429733      2.44888779
  H      2.70081664      8.49804534      3.43298732
  H      2.56562198      7.45168090      4.84795922
  H      2.05849109      6.86246545      3.25517735
  H      3.52456377      1.59011213      3.85469281
  H      5.30002019      1.57551142      3.97083437
  H      4.49922050      2.07111229      2.44613964
  N      9.89169516      3.67053910      5.22990383
  C     10.32816563      4.75599943      4.59835267
  N      9.74955468      5.82465944      5.13130042
  C      8.92843594      5.41634602      6.13674403
  C      9.01711957      4.06002164      6.19846496
  C     10.27963920      2.31153193      4.95632155
  C     11.29498250      1.81623696      5.98108628
  C      9.91534290      7.17118383      4.66698486
  H     10.92150259      4.78674320      3.69597757
  H      8.31245944      6.11118380      6.67192911
  H      8.49466453      3.34684614      6.80115546
  H      9.37035467      1.69918063      4.99355567
  H     10.70756074      2.28139152      3.95327941
  H     11.57137573      0.79075391      5.75328239
  H     10.86849199      1.84352644      6.98085678
  H     12.19228928      2.43302274      5.96379661
  H     10.72180830      7.66852643      5.20836610
  H      8.98284265      7.71270575      4.83514655
  H     10.15849896      7.13619802      3.60527510
  N      7.61963961      3.95856869      1.73295534
  C      7.67405027      5.17641116      1.21051178
  N      7.49694916      6.07058019      2.16872750
  C      7.32677789      5.40789524      3.34417552
  C      7.40948072      4.07845447      3.07604141
  C      7.79211895      2.72720690      1.00880581
  C      9.22457494      2.21992331      1.14885651
  C      7.47631736      7.49370270      2.00457238
  H      7.84314013      5.40066041      0.17769331
  H      7.14802407      5.94448013      4.25625350
  H      7.33950636      3.22444379      3.72471179
  H      7.08684663      1.99308457      1.40645442
  H      7.54810124      2.92335528     -0.03724530
  H      9.43999226      1.47472165      0.38803406
  H      9.36358870      1.77214706      2.12883020
  H      9.91685302      3.05265103      1.04184411
  H      8.45045796      7.83401136      1.65081375
  H      7.25084024      7.95086828      2.96636525
  H      6.71246579      7.76265950      1.27434708
 Cl      6.72942906      7.89084573      5.62036179
 Cl    -43.58228803     35.68442911     37.82320056
 Cl      7.12012175      1.39772739      5.31208551
 Cl     10.62052730      5.52649405      1.62738806
 Cl      4.95220522      5.28564910      0.36343862

