62
Energy =    -96.25676365 au
  N      7.37202978      3.43973428      5.18274449
  C      6.60705157      4.44419590      4.74788765
  N      7.25826382      5.58753293      4.92200382
  C      8.49433734      5.31434316      5.41120619
  C      8.57290250      3.97032452      5.57314486
  C      7.06364002      2.03409726      5.09443479
  C      7.67470901      1.42331379      3.83757014
  C      6.78326390      6.87864522      4.52886756
  H      5.57666122      4.36967159      4.46968144
  H      9.19412165      6.09558980      5.62637359
  H      9.37877071      3.36386412      5.92899768
  H      7.44325064      1.54237189      5.99636696
  H      5.97716912      1.93410529      5.06492853
  H      7.33921486      0.39740753      3.70929175
  H      8.75981248      1.43626640      3.89226062
  H      7.36593675      2.01801373      2.97918953
  H      5.74827099      6.98729402      4.85315005
  H      6.82694049      6.95363989      3.44146708
  H      7.42389844      7.63351288      4.98648357
  N      7.61392000      7.76681849      9.08408217
  C      7.30824655      8.79263877      8.28149968
  N      6.20378227      8.49180609      7.59654720
  C      5.85967905      7.19936423      7.88695343
  C      6.73873755      6.74454686      8.80985538
  C      8.81237654      7.70184014      9.87998380
  C      8.72202668      8.60106924     11.11134011
  C      5.52032974      9.33414319      6.65696018
  H      7.74425390      9.77139647      8.33621691
  H      5.02810044      6.73105101      7.39071258
  H      6.81557454      5.79418000      9.29354975
  H      8.97180299      6.66145574     10.17627803
  H      9.63915919      8.02055505      9.23384455
  H      9.65248489      8.54657060     11.66979607
  H      7.90848563      8.28735467     11.76248755
  H      8.55270054      9.63584352     10.81830997
  H      5.04672234     10.17209420      7.16875709
  H      4.75335094      8.73463651      6.16393085
  H      6.22507421      9.71652702      5.92249777
  N      4.57177024      8.90962256      1.76898685
  C      4.18932770      7.91062467      2.55757103
  N      4.07528689      6.80518525      1.83138451
  C      4.39415531      7.10962075      0.54191761
  C      4.70933385      8.43317502      0.50385812
  C      4.86471087     10.26515696      2.15604998
  C      6.33995561     10.40941800      2.50569275
  C      3.72128461      5.51113661      2.33926805
  H      3.98205115      7.95471166      3.61293787
  H      4.39173791      6.37104923     -0.23129381
  H      4.93173640      9.11579644     -0.30015332
  H      4.62845362     10.89408669      1.28397642
  H      4.23685494     10.52896014      3.00841676
  H      6.54500630     11.43379069      2.79944570
  H      6.94600662     10.17853072      1.63425773
  H      6.62161195      9.74354082      3.31934270
  H      4.58189983      4.83828251      2.23705351
  H      2.87541652      5.10421771      1.78601475
  H      3.46222136      5.61321107      3.39203748
 Cl      9.18063451      8.47360164      6.63811884
 Cl      6.79228989      4.21786886      2.17161339
 Cl      3.51090388      6.79720799      5.61517589
 Cl      4.37342537     11.27089659     -0.90498461
 Cl     -1.63268273      9.24953517     36.16475989
