62
Energy =    -96.26953169 au
  N      3.43543259      7.70445117      6.93321446
  C      3.51824408      6.63645993      7.71881519
  N      4.49902994      6.81340730      8.59339044
  C      5.04667595      8.04261748      8.38484719
  C      4.38149255      8.60234412      7.34145719
  C      2.45605140      7.89076472      5.89474920
  C      1.17055142      8.47083451      6.47363432
  C      4.82808362      5.93984083      9.68055308
  H      2.93031998      5.75327527      7.60596888
  H      5.88866179      8.37434815      8.96080119
  H      4.50527077      9.55253532      6.86380224
  H      2.88343637      8.54993940      5.13359996
  H      2.26640448      6.91309125      5.44696546
  H      0.36935622      8.42096438      5.74169243
  H      1.31603562      9.50747692      6.76966368
  H      0.89098337      7.89972581      7.35745815
  H      4.87510909      4.91040377      9.32943565
  H      4.04992140      6.02005303     10.44250180
  H      5.79380742      6.24429172     10.08474214
  N      6.65423465      3.38525531      6.21867460
  C      6.91285640      4.57679740      5.67493296
  N      7.33161553      5.40658784      6.62623278
  C      7.31057966      4.74542218      7.81792001
  C      6.88213735      3.48267419      7.56548511
  C      6.08169522      2.27074839      5.50967839
  C      7.12642650      1.54001780      4.67278218
  C      7.67488776      6.79130547      6.47111896
  H      6.85682485      4.80315590      4.63118210
  H      7.59142756      5.26328897      8.72166485
  H      6.71709057      2.65728988      8.22640017
  H      5.64035390      1.59247618      6.24191661
  H      5.28488795      2.67175672      4.87532257
  H      6.66077792      0.70730108      4.15367046
  H      7.92295919      1.15438380      5.30603233
  H      7.56201757      2.20804440      3.93387121
  H      8.56930410      6.89774556      5.85563398
  H      7.85974838      7.20036792      7.47070082
  H      6.84763193      7.32219594      6.00048032
  N      1.63546993      3.70867581      7.41688863
  C      0.70432771      3.90261270      8.34930242
  N     -0.27658802      4.63472070      7.83565904
  C      0.00292093      4.86133407      6.52170372
  C      1.19543500      4.27379824      6.25207996
  C      2.84045276      2.93143008      7.55562562
  C      2.58955963      1.48895126      7.12420522
  C     -1.42547965      5.06264641      8.57239793
  H      0.79970876      3.64863596      9.38350254
  H     -0.65710616      5.41706630      5.88783188
  H      1.78725740      4.24268899      5.36008261
  H      3.61171549      3.40454870      6.93914658
  H      3.13829041      2.96387134      8.60638121
  H      3.40653520      0.84550409      7.44117141
  H      2.48485066      1.42638888      6.04391188
  H      1.66343757      1.14302865      7.58113681
  H     -2.13421642      5.54308404      7.90149758
  H     -1.10423124      5.76851655      9.34132869
  H     -1.88312428      4.18840230      9.03822112
 Cl      1.42024765      6.71737356      9.44151557
 Cl      4.37314292      5.15439283      5.20592643
 Cl      8.02831073      7.25253248      9.74718599
 Cl     -0.62292512      1.66883540      8.37512841
 Cl     27.98421989    -17.44070921     -9.87362390
