62
Energy =    -96.27229051 au
  N      9.49850569      3.14406616      2.80317332
  C      8.39736119      3.08241336      3.53935035
  N      8.31956384      4.16837270      4.29642532
  C      9.38497916      4.96735670      4.01945886
  C     10.12655044      4.32484904      3.07770044
  C      9.89647294      2.14341701      1.84549955
  C      9.41489225      2.51882823      0.44796612
  C      7.26235774      4.49622446      5.20841806
  H      7.74287891      2.23113992      3.56738781
  H      9.51505641      5.90437950      4.53341076
  H     11.03956104      4.61216243      2.59772526
  H     10.98565991      2.04969155      1.87197171
  H      9.44873771      1.20073439      2.17785762
  H      9.46357456      1.65713603     -0.21111268
  H     10.02231120      3.31682056      0.02570272
  H      8.38527067      2.86258231      0.50503797
  H      6.33421268      4.62359605      4.65063344
  H      7.52349437      5.42998333      5.71231627
  H      7.13261313      3.69464608      5.93471213
  N      5.70764857      0.55433804      2.42696192
  C      5.80505641     -0.59137952      3.08767562
  N      5.41985103     -0.40642498      4.34124428
  C      5.06937035      0.90090723      4.48969298
  C      5.24581179      1.50514723      3.28580239
  C      5.97221027      0.74390526      1.02550509
  C      4.76408248      0.29891407      0.20592377
  C      5.36296752     -1.44897192      5.31885561
  H      6.15421761     -1.51791986      2.68424182
  H      4.72849092      1.29769615      5.42417264
  H      5.11961683      2.52335713      2.97649417
  H      6.18772188      1.80310291      0.86736940
  H      6.85400519      0.15316233      0.76709498
  H      5.02242085      0.23836303     -0.84806359
  H      3.94649249      1.00560867      0.32709273
  H      4.42445761     -0.67534024      0.55264690
  H      4.74721166     -2.25267306      4.90616644
  H      4.92300056     -1.06901075      6.23859135
  H      6.37138334     -1.81741180      5.51281095
  N      9.58235894      7.13152461      0.58285728
  C      8.55133140      6.72023194      1.31880225
  N      8.27110024      7.64653330      2.22496580
  C      9.15280194      8.67420744      2.07106426
  C      9.97638364      8.35154835      1.03597585
  C     10.19014707      6.43625111     -0.52645279
  C      9.14307479      5.99009805     -1.53785831
  C      7.21599627      7.56423155      3.19153572
  H      8.00340172      5.79363801      1.22159463
  H      9.13631615      9.53165662      2.71059980
  H     10.78375609      8.87429933      0.54720861
  H     10.90500983      7.13653678     -0.98177035
  H     10.73662389      5.56934944     -0.14224302
  H      9.63180060      5.47783268     -2.36193454
  H      8.61876793      6.85570278     -1.93483453
  H      8.41892201      5.31524453     -1.08705499
  H      6.66241540      6.64451029      3.01919029
  H      6.54943095      8.42051844      3.08950123
  H      7.63537640      7.56238413      4.20885015
 Cl      8.71211949      7.46869793      6.11692745
 Cl      3.58032242     -2.24997666      2.61252675
 Cl      6.51068670      4.24608770      1.62227633
 Cl      8.49151526     -0.08208655      3.91340016
 Cl     12.12963467      9.01560788     -1.32151450
