#B3LYP/6-31+G(d) OPT FREQ

62, Energy =    -96.26277591 au

0 1
  N      5.17425667      1.28946726      4.41101732
  C      5.50278426      0.81230716      3.21430046
  N      6.62665161      0.11451720      3.31468852
  C      7.01939199      0.13324258      4.62011355
  C      6.10636373      0.86929716      5.30892628
  C      3.97198308      2.01720863      4.72347950
  C      2.86832022      1.04784909      5.13443059
  C      7.22495368     -0.59357628      2.22137855
  H      4.97719078      0.99347640      2.30041843
  H      7.90203613     -0.36925255      4.95848685
  H      6.06750040      1.16543710      6.33651366
  H      4.21500895      2.73144659      5.51846862
  H      3.67488400      2.55499344      3.82051925
  H      1.91965788      1.57079395      5.21880655
  H      3.10056438      0.58888144      6.09168372
  H      2.78331410      0.26395696      4.38348680
  H      6.47651621     -1.27069613      1.80590176
  H      8.08645760     -1.15694358      2.57099093
  H      7.53042699      0.11350192      1.44371949
  N      2.35817014      0.80734165      0.23960583
  C      2.99111148      0.03065766     -0.63709413
  N      4.26916175      0.39319532     -0.69366786
  C      4.44162971      1.48539450      0.10173951
  C      3.24277398      1.74516224      0.68517514
  C      0.95238602      0.73455965      0.53532759
  C      0.59533295     -0.61072553      1.15941886
  C      5.28139359     -0.16105285     -1.54326984
  H      2.57511058     -0.83606130     -1.10425901
  H      5.41191244      1.93579667      0.18928556
  H      2.94976810      2.50668245      1.37953463
  H      0.71681024      1.54863343      1.22549141
  H      0.41271116      0.89141571     -0.40607236
  H     -0.38449583     -0.56230928      1.62708283
  H      1.34013836     -0.87220866      1.90871010
  H      0.58298385     -1.39298474      0.40562840
  H      6.23036109      0.31747816     -1.30382963
  H      5.02129151      0.03218087     -2.58557430
  H      5.35971692     -1.23637310     -1.38470515
  N      5.13137984      5.28200427      3.18423641
  C      4.99673764      5.50989195      1.87165710
  N      5.80704571      4.68210191      1.20289439
  C      6.47010973      3.91293868      2.11162311
  C      6.04822766      4.28807539      3.34973025
  C      4.43432935      5.94703085      4.25892709
  C      2.92499841      5.77061487      4.14636031
  C      5.97202245      4.61145646     -0.22258355
  H      4.35507541      6.24060007      1.42374422
  H      7.16719968      3.16257954      1.77988842
  H      6.30441628      3.95675302      4.34292516
  H      4.79975668      5.49568228      5.19242145
  H      4.69023067      7.01074961      4.24531528
  H      2.44556004      6.27139544      4.98198531
  H      2.66617785      4.71641251      4.19072932
  H      2.53806642      6.19255264      3.21993070
  H      6.69232906      3.81673944     -0.43879689
  H      6.34697756      5.55923146     -0.61056667
  H      5.02450543      4.37495033     -0.70719298
 Cl      7.86819643      1.88642801     -0.01766198
 Cl      3.79608037     -1.20015922      2.54106003
 Cl      2.02917038      1.17481003     -2.71981633
 Cl      0.58091207     39.40510790     16.47487413
 Cl      5.81700354      4.06021125      6.59121740

