#B3LYP/6-31+G(d) OPT FREQ

62, Energy =    -96.29386587 au

0 1
  N      5.65360807      6.64336080      3.98153532
  C      5.72531426      6.20547329      2.73022580
  N      5.19269596      4.98985362      2.66955612
  C      4.75979373      4.64729061      3.91519413
  C      5.04736485      5.69088598      4.73947663
  C      6.16305086      7.90814369      4.44644022
  C      5.08312900      8.98297145      4.39036001
  C      5.12865260      4.14594797      1.51212156
  H      6.27574139      6.71678345      1.95103937
  H      4.34651570      3.68123201      4.11735362
  H      4.93199055      5.80843558      5.79823726
  H      6.50420468      7.76578286      5.47531783
  H      7.00076828      8.17688208      3.79871329
  H      5.48864257      9.92232841      4.75427244
  H      4.23619229      8.70620208      5.01518348
  H      4.73954180      9.12546777      3.36764939
  H      4.10998428      4.10546174      1.12219802
  H      5.43407450      3.13591524      1.81077708
  H      5.79632737      4.53411612      0.74677368
  N      9.34019145      2.08172510      5.83864723
  C      9.94767391      2.92193105      6.67174958
  N      9.03395504      3.55318960      7.40015460
  C      7.80688605      3.09388305      7.02813509
  C      7.99726748      2.17340915      6.04244762
  C     10.05795962      1.31012612      4.84988288
  C      9.17510579      0.32572441      4.10789373
  C      9.28220854      4.57903334      8.37091004
  H     11.00123803      3.12379480      6.66163516
  H      6.90704156      3.48714820      7.45384536
  H      7.27252805      1.65075603      5.44863151
  H     10.52581464      2.03443958      4.17308525
  H     10.86836656      0.78159675      5.36397900
  H      9.76280851     -0.17825723      3.34492132
  H      8.33747129      0.82381678      3.62531324
  H      8.77936519     -0.42666357      4.78805727
  H      9.23460348      4.17298704      9.38224131
  H      8.51291910      5.35239077      8.26051874
  H     10.26373195      5.01049661      8.19594612
  N      9.04706846      4.67466916      2.69661649
  C      9.69240332      5.72274399      3.19254930
  N      9.19397510      6.01776814      4.38221561
  C      8.20624098      5.12533265      4.66364073
  C      8.11250124      4.27730974      3.60656745
  C      9.27687017      4.09812259      1.39785416
  C     10.39824370      3.06371433      1.43954960
  C      9.64695304      7.04775873      5.26946825
  H     10.49283506      6.24310805      2.70910178
  H      7.64029350      5.20057928      5.57127060
  H      7.47183932      3.42902227      3.44446576
  H      8.34497029      3.63417779      1.06763670
  H      9.52511394      4.91850636      0.71993150
  H     10.76802142      2.86608151      0.43687621
  H     10.03313643      2.13389840      1.86705323
  H     11.21663901      3.43081453      2.05443853
  H     10.64216713      6.78969262      5.63676454
  H      8.94983342      7.11664000      6.10361010
  H      9.69283009      7.99922191      4.74029850
 Cl      6.73500222      6.45719029      7.50305326
 Cl    -63.96731870     46.01258927     54.84177543
 Cl      6.02255116      1.56799667      3.32798204
 Cl     11.73602611      4.18265500      4.65675135
 Cl      8.24116755      7.55017340      1.54288383

