62
Energy =    -96.29041024 au
  N      5.21318053      6.32165353      3.84141589
  C      4.97575413      5.39936775      2.91309104
  N      4.93143382      4.20825263      3.49702923
  C      5.13445671      4.37303698      4.83335663
  C      5.31090041      5.70452527      5.05149528
  C      5.33806086      7.74156603      3.63334296
  C      3.97983840      8.42609517      3.74612648
  C      4.78655781      2.95492508      2.81554893
  H      4.95300341      5.53673116      1.83985642
  H      5.18860390      3.53041384      5.49199737
  H      5.57087650      6.27073380      5.92697472
  H      6.01641278      8.11985197      4.40800832
  H      5.76346088      7.90755822      2.64176523
  H      4.09528165      9.49452698      3.58910810
  H      3.56225134      8.26742252      4.73736790
  H      3.28867162      8.03360775      3.00204753
  H      3.75981608      2.59252865      2.88920038
  H      5.45658065      2.22984318      3.28021140
  H      5.04622549      3.10562630      1.76777959
  N      8.66868566      4.23299309      6.71968388
  C      9.28158613      3.13448555      6.29060542
  N     10.08837586      3.45017857      5.28428574
  C      9.98930458      4.79102082      5.06352892
  C      9.09231651      5.28456618      5.95856742
  C      7.66196594      4.28421689      7.75102432
  C      7.90367449      5.43536200      8.71649910
  C     10.85762583      2.53713776      4.48841735
  H      9.14477911      2.15058305      6.68959049
  H     10.53448007      5.25140621      4.26205062
  H      8.68882966      6.27416354      6.08856451
  H      6.68862611      4.40750630      7.26871726
  H      7.67103565      3.32061414      8.26706063
  H      7.19007484      5.38113899      9.53410447
  H      7.76577705      6.38489711      8.20447538
  H      8.91080260      5.39320012      9.12564840
  H     11.75350169      2.21495259      5.02176866
  H     11.14531188      3.05523274      3.56754773
  H     10.24580414      1.66851720      4.24935540
  N      8.20165725      3.61015082      1.74033667
  C      8.49663089      4.56321079      0.86971974
  N      8.43731505      5.74145710      1.47358168
  C      8.09088986      5.53599001      2.77231296
  C      7.94324295      4.19528967      2.93824043
  C      8.17176215      2.19072996      1.49395135
  C      9.46807952      1.72464992      0.83775051
  C      8.73859681      7.00096058      0.86150665
  H      8.75559870      4.41256770     -0.15740141
  H      8.00493932      6.33691740      3.47725665
  H      7.67820515      3.60639114      3.79582437
  H      8.02539049      1.70828769      2.46279032
  H      7.31084555      1.96679478      0.85548691
  H      9.61207652      0.65997634      0.99907149
  H     10.30724008      2.26873504      1.26559320
  H      9.45281472      1.91354390     -0.23278081
  H      9.79431422      7.02323809      0.58317809
  H      8.53748633      7.80124055      1.57053476
  H      8.12071224      7.13061402     -0.02862537
 Cl      7.19148767      7.99315342      6.40270362
 Cl    -52.11065369     39.50043502     44.61378321
 Cl      7.11913842      1.75144584      5.09577099
 Cl     11.30043770      4.61882505      1.92738162
 Cl      5.79036187      4.78551137     -0.03873195
