62
Energy =    -96.27997897 au
  N      3.42742672      5.99372857      1.64401106
  C      3.60219790      6.52662381      2.84537640
  N      4.90596544      6.65365418      3.07478508
  C      5.58162985      6.19008543      1.98736666
  C      4.64937777      5.77401865      1.08852151
  C      2.14874369      5.66815302      1.06611787
  C      1.86468644      6.52228001     -0.16316409
  C      5.52716344      7.16884307      4.26289385
  H      2.77425785      6.81202845      3.48415655
  H      6.65676826      6.20645855      1.97051884
  H      4.76360475      5.32284438      0.12580005
  H      2.16588770      4.60504702      0.81046078
  H      1.39578868      5.85495760      1.83619243
  H      0.89428948      6.25508537     -0.57181052
  H      2.62000150      6.37155271     -0.93199972
  H      1.84425146      7.57444518      0.11178585
  H      5.15199134      8.16801437      4.48261825
  H      6.60667330      7.20262358      4.09086979
  H      5.32232145      6.51449826      5.11060022
  N      1.08084692      3.91312288      4.75913302
  C      2.13953494      4.56423126      5.21733911
  N      1.77493742      5.34566317      6.22496636
  C      0.44473391      5.17634285      6.42974017
  C      0.00569035      4.27744668      5.51086761
  C      1.06495408      2.94846935      3.68944828
  C      0.81736587      1.54998217      4.24790253
  C      2.65786296      6.18328714      6.97878246
  H      3.12857625      4.47531049      4.81718407
  H     -0.09093109      5.71316175      7.18513419
  H     -0.97829860      3.89975593      5.32626584
  H      0.27788890      3.22732345      2.98339177
  H      2.02673689      2.98752528      3.16982095
  H      0.97463661      0.81024483      3.46849016
  H     -0.19862114      1.45145960      4.62557821
  H      1.50961153      1.35701769      5.06325810
  H      3.49816431      5.57370315      7.31790192
  H      2.12810369      6.58464346      7.83964764
  H      3.01080058      7.00681633      6.35717177
  N      7.06290748      3.14495142      3.03366742
  C      6.23689267      2.10458491      3.06678632
  N      5.52378453      2.14993791      4.18429967
  C      5.88115715      3.26676166      4.87551215
  C      6.85174850      3.89167291      4.15510648
  C      8.02031645      3.46306585      2.00005151
  C      7.44185932      3.21344399      0.61243538
  C      4.47855974      1.23723735      4.54307534
  H      6.14669166      1.35017851      2.31333323
  H      5.40135298      3.50009087      5.80825412
  H      7.40309504      4.80122763      4.30774807
  H      8.29207400      4.51565154      2.14099598
  H      8.92220316      2.85993305      2.15640526
  H      7.53651850      2.16912495      0.32072277
  H      7.95785186      3.82415282     -0.12184629
  H      6.38698887      3.47309018      0.60768278
  H      3.76896638      1.18940892      3.71672024
  H      3.98919502      1.61755831      5.44217700
  H      4.88562481      0.24344246      4.73413216
 Cl      0.67840838      7.03635166      3.92498063
 Cl      9.46964608     35.59734478     25.59786400
 Cl      8.65017594      6.55295864      3.16497032
 Cl      3.89069048      2.83376833      1.63728376
 Cl      3.41715332      2.97137288      7.18748041
