62
Energy =    -96.26901885 au
  N      5.62465585      7.56384602      4.81379704
  C      6.02609367      7.19400242      3.60305415
  N      5.38947155      6.07816704      3.26580726
  C      4.55281635      5.73303381      4.28563323
  C      4.70493952      6.66408327      5.26522996
  C      6.10194872      8.73604420      5.50697974
  C      4.94585674      9.64891409      5.89518916
  C      5.54459389      5.32505200      2.05498296
  H      6.76641828      7.75128055      3.03034512
  H      3.96635665      4.83793588      4.22941035
  H      4.24904578      6.74594362      6.23588846
  H      6.63047352      8.41595242      6.40962620
  H      6.80334906      9.23702099      4.83266606
  H      5.33524242     10.56210548      6.33662653
  H      4.30562862      9.15809222      6.62404938
  H      4.35554147      9.90896451      5.01965280
  H      4.79603246      5.62773486      1.32004939
  H      5.39744057      4.26699228      2.29228322
  H      6.53790893      5.49233397      1.64451293
  N     -1.99135710      5.28233400      7.19859093
  C     -1.05326739      5.01059704      8.10208917
  N     -0.39703650      6.12633444      8.39373780
  C     -0.92874659      7.13965278      7.65261160
  C     -1.93238508      6.60805071      6.90112601
  C     -2.92885209      4.35671518      6.60758160
  C     -3.55950191      3.45526247      7.65935499
  C      0.66109954      6.22037004      9.35641911
  H     -0.83314067      4.06034513      8.56986899
  H     -0.55185470      8.13958574      7.70864368
  H     -2.65263518      7.04244221      6.22532473
  H     -3.69247549      4.96827155      6.10481847
  H     -2.40277447      3.75459848      5.86005283
  H     -4.28178666      2.79899602      7.18207352
  H     -4.08013684      4.05649287      8.40053533
  H     -2.81323627      2.84504595      8.16292107
  H      0.78501431      5.24276957      9.81794290
  H      0.40668702      6.95624591     10.11946980
  H      1.60018793      6.52925477      8.88254075
  N      3.10182777      2.91840157      6.93155004
  C      2.76976908      3.24390899      8.17834216
  N      3.78438719      3.89060259      8.73630425
  C      4.78709405      3.99040268      7.82086972
  C      4.36026898      3.37211936      6.68661078
  C      2.27468855      2.21704376      5.97819865
  C      0.89481176      2.85444342      5.88019265
  C      3.79509923      4.45046754     10.05549970
  H      1.83560025      3.01150461      8.68073674
  H      5.69834153      4.50883175      8.03140097
  H      4.82993484      3.20687010      5.73270112
  H      2.80141886      2.24418381      5.01775387
  H      2.17741782      1.17395426      6.29544695
  H      0.33122578      2.37727187      5.08338859
  H      0.98440897      3.91478963      5.65556803
  H      0.35263710      2.73481157      6.81478608
  H      2.90599968      4.12195374     10.58770731
  H      3.79335882      5.54213478      9.96029825
  H      4.69047604      4.13518391     10.59138780
 Cl      8.15292053      9.30776255      2.67486084
 Cl     -4.77221631      6.81146523      5.36112326
 Cl      0.13206019      2.61588948      9.90685191
 Cl      4.62624201      2.43173241      3.52869541
 Cl      3.69362537      7.27198639      8.42673561
