62
Energy =    -96.26342922 au
  N      9.11886394      6.05855326      8.53019754
  C      8.14428653      5.85287656      7.64165323
  N      8.09218667      6.88619883      6.80782579
  C      9.06224171      7.77090510      7.15846079
  C      9.70259909      7.25875411      8.24447169
  C      9.42957712      5.14145615      9.60264464
  C     10.91790116      5.08983882      9.91152055
  C      7.23068513      7.03263661      5.67471390
  H      7.59061284      4.92515380      7.58450992
  H      9.25244646      8.65538741      6.58842804
  H     10.52186279      7.65493448      8.80582898
  H      8.87148687      5.44072058     10.49751418
  H      9.06201246      4.15911746      9.28138755
  H     11.10917444      4.27435332     10.60304260
  H     11.26557740      6.01410409     10.36931794
  H     11.48259655      4.91065666      9.00148908
  H      7.88241627      7.12103689      4.79454647
  H      6.62762401      7.93606218      5.77259165
  H      6.59225979      6.15824240      5.59226945
  N     10.06777424     -0.49815138      3.79606378
  C      8.86922091     -0.17741051      3.30954032
  N      8.17723978      0.45782489      4.25566969
  C      8.91486457      0.45381294      5.40562273
  C     10.10054840     -0.13533996      5.11692003
  C     11.11427428     -1.15613457      3.06257371
  C     12.10987951     -0.13869561      2.51371634
  C      6.80862406      0.85721734      4.12528675
  H      8.59894381     -0.21408104      2.27523933
  H      8.55258247      0.88479296      6.31797257
  H     10.94927786     -0.33718978      5.73821138
  H     11.60772297     -1.87159155      3.72814105
  H     10.63953267     -1.70870349      2.24978617
  H     12.80374605     -0.61968248      1.82963576
  H     12.67396908      0.32234159      3.32250590
  H     11.56969737      0.64348512      1.98352201
  H      6.70195804      1.51827731      3.26517376
  H      6.49724606      1.37114411      5.03173677
  H      6.20001634     -0.03751368      3.97099282
  N      9.76947736      3.90040189      4.28829857
  C      9.76822218      4.49708649      3.10574823
  N      8.52271747      4.80105645      2.76652149
  C      7.69764632      4.33766362      3.74905497
  C      8.47762352      3.77874213      4.70849998
  C     10.92953281      3.41815533      4.98695555
  C     11.01080585      4.04501823      6.37228344
  C      8.14544549      5.40120507      1.52276090
  H     10.63748140      4.75915292      2.54002347
  H      6.63305935      4.43336952      3.68344988
  H      8.22193760      3.33315098      5.65147171
  H     10.86350676      2.32792929      5.05956487
  H     11.80376920      3.68105068      4.38827276
  H     11.94447834      3.75829074      6.85037328
  H     10.17823434      3.70465174      6.98247164
  H     10.97214337      5.12815561      6.27476447
  H      7.06769476      5.55030186      1.50100199
  H      8.44376758      4.73564007      0.70886172
  H      8.65272244      6.36118236      1.41419744
 Cl    -27.10238184     15.97140989    -10.15443513
 Cl      7.74769249     -2.41792442      3.38894196
 Cl      7.75872895      2.76581280      7.90679091
 Cl      9.76630887      2.29534169      1.61716758
 Cl     10.08119783      7.19206619      4.31468272
