#B3LYP/6-31+G(d) OPT FREQ

62, Energy =    -96.25373981 au

0 1
  N      4.82281626      6.83562893      1.61757109
  C      3.94305527      7.69666646      1.11330739
  N      2.71775674      7.23740540      1.33460722
  C      2.81699723      6.05762908      2.01175005
  C      4.14055177      5.80191506      2.18933968
  C      6.26118880      6.96952603      1.57019376
  C      6.86803148      6.82093932      2.95888733
  C      1.51804994      7.90165695      0.91062013
  H      4.11807878      8.58064089      0.49879752
  H      1.96105237      5.49048349      2.31390874
  H      4.63020494      4.97223845      2.67426789
  H      6.65338586      6.19218557      0.90890755
  H      6.48210799      7.94924388      1.14100954
  H      7.93179949      7.03568847      2.94200843
  H      6.72435643      5.80700866      3.32457046
  H      6.39561268      7.51333875      3.65089190
  H      1.05634461      8.42685658      1.74583622
  H      0.81485788      7.17635639      0.50842228
  H      1.80269061      8.62658318      0.13875384
  N      9.58250773      5.18965166      1.43612712
  C      9.75994089      4.79407836      2.69972842
  N      8.93561767      3.77715110      2.94976674
  C      8.22848909      3.50143125      1.81831556
  C      8.63751448      4.38426793      0.86641753
  C     10.27658876      6.29826850      0.83357073
  C     11.50846132      5.83086302      0.06364079
  C      8.77000776      3.11718057      4.21121437
  H     10.34063354      5.37278620      3.40903183
  H      7.46340596      2.75068830      1.80640489
  H      8.33015672      4.49168915     -0.15367167
  H      9.58721189      6.82348544      0.16892849
  H     10.57731458      6.96250725      1.65506407
  H     11.99228848      6.68618987     -0.39742660
  H     11.23721374      5.12016587     -0.71680401
  H     12.21550143      5.36100738      0.74131305
  H      9.20367513      2.11543494      4.18294544
  H      7.69386142      3.03627974      4.40273905
  H      9.24847828      3.70795290      4.98735202
  N      9.01189819      5.74314128      7.28956213
  C      8.42017894      4.61178939      7.70102041
  N      7.28429981      4.45293424      7.01481939
  C      7.09361559      5.57108917      6.24199761
  C      8.17167552      6.37286813      6.40838120
  C     10.25182413      6.25461593      7.81032315
  C     11.44211160      5.69998814      7.03452657
  C      6.32989235      3.39549590      7.17750027
  H      8.91560392      3.83002694      8.24454551
  H      6.21807697      5.67570520      5.63645949
  H      8.43529267      7.30418215      5.94927660
  H     10.23718512      7.34133611      7.72080376
  H     10.29593129      5.98378724      8.86888913
  H     12.36840953      6.06201780      7.47364302
  H     11.39010432      6.04114386      5.99977137
  H     11.44317168      4.61204382      7.05431479
  H      6.84576536      2.47514799      7.45284893
  H      5.79824819      3.25505951      6.23484070
  H      5.62104145      3.64830764      7.97071274
 Cl      7.69825520      5.20718618      9.96528947
 Cl    -11.23611394    -26.92744731    -14.32874743
 Cl      3.36483566      9.73049366     -1.09366994
 Cl      5.57850851      3.29671343      3.73752213
 Cl     10.60386987      7.40661841      3.98356949

