62
Energy =    -96.26281966 au
  N      1.64974799      2.62363201      3.03923601
  C      1.44713784      2.05276387      1.85622067
  N      2.52289799      2.22829227      1.10078688
  C      3.43792179      2.94701741      1.80869958
  C      2.88953505      3.19778827      3.02489287
  C      0.67930358      2.67211640      4.09987551
  C      0.79216169      1.44856016      5.00417631
  C      2.69713505      1.77187434     -0.24632530
  H      0.58698704      1.47748170      1.58680692
  H      4.38154536      3.21319991      1.37105708
  H      3.26759544      3.74387874      3.86493358
  H      0.83271695      3.59585193      4.66468873
  H     -0.30271440      2.71864386      3.62305160
  H     -0.09098009      1.35902815      5.63009461
  H      1.67005158      1.51825789      5.64374925
  H      0.88819368      0.55418377      4.39299128
  H      3.67090426      2.10592686     -0.60088867
  H      1.91060632      2.18892627     -0.87573807
  H      2.64219808      0.68297026     -0.27339074
  N      6.99012149      1.50767711      1.96615645
  C      6.50989890      1.49340576      3.21281168
  N      5.39077109      0.76154443      3.24058902
  C      5.15482891      0.30125647      1.98245906
  C      6.15417054      0.76833750      1.18586234
  C      8.15575013      2.20820248      1.49637702
  C      9.29326390      1.24260297      1.18498997
  C      4.56233405      0.48974377      4.37908456
  H      6.94168234      2.00528902      4.04846584
  H      4.27096197     -0.27998340      1.78192174
  H      6.30387742      0.67926482      0.13131548
  H      7.84266080      2.75316230      0.59530734
  H      8.45924900      2.92542300      2.26138474
  H     10.14927712      1.79776051      0.81301609
  H      8.98762160      0.53034358      0.42325072
  H      9.59329447      0.69340153      2.07678950
  H      5.03945769     -0.24027499      5.03528082
  H      3.61646771      0.07445335      4.00509104
  H      4.37635044      1.40558976      4.93745577
  N      2.08681229      6.30470121      1.90419262
  C      3.31486274      6.39525774      2.40899656
  N      4.19202925      6.00930256      1.48546223
  C      3.50529244      5.71807661      0.34212433
  C      2.18758162      5.90373905      0.60397854
  C      0.85985984      6.67223629      2.56152697
  C      0.50221907      8.11622838      2.22552258
  C      5.61763274      6.03025386      1.61880203
  H      3.55080900      6.64335532      3.42155442
  H      4.00882196      5.37593001     -0.53817583
  H      1.31677989      5.73290425      0.00651617
  H      0.08913224      5.97047798      2.22641929
  H      1.00803495      6.56690935      3.63916305
  H     -0.34010309      8.44639946      2.82734230
  H      0.24194368      8.20664865      1.17410496
  H      1.36329124      8.75124282      2.42677937
  H      5.97488597      7.05310047      1.48307366
  H      6.04989783      5.36863480      0.86798914
  H      5.89958511      5.69395209      2.61613243
 Cl      2.14819713     -0.72483094      2.56386967
 Cl     25.92018273    -11.27301081     24.49208406
 Cl      5.94254565      3.33034759     -0.50411888
 Cl     -0.33011800      3.88359150      1.08771320
 Cl      3.96308183      8.94389302      2.51815765
