#B3LYP/6-31+G(d) OPT FREQ

62, Energy =    -96.26007669 au

0 1
  N      6.26762034      5.16506581      8.23072164
  C      6.48970953      5.44739876      6.94856347
  N      7.50571302      6.29676543      6.86258354
  C      7.94106989      6.56745938      8.12589316
  C      7.16340439      5.85409153      8.98622162
  C      5.26154864      4.27535196      8.76224077
  C      5.32086712      2.91092581      8.08887844
  C      8.04505401      6.82912478      5.64543066
  H      5.95359001      5.05964313      6.09398885
  H      8.74572552      7.24800497      8.31003159
  H      7.16507727      5.73630170     10.06045280
  H      5.45744351      4.19364797      9.84053781
  H      4.27634597      4.72597783      8.60903220
  H      4.56804432      2.26126171      8.52569633
  H      6.29716933      2.45938810      8.24639670
  H      5.13519584      2.98898277      7.01984594
  H      9.10828166      6.59958603      5.57742137
  H      7.91839723      7.92137847      5.61855575
  H      7.52036464      6.38051943      4.80505184
  N      1.16183930      3.52658286      0.30296796
  C      1.01467600      3.31210975      1.61114409
  N      2.21248660      3.08449358      2.14863630
  C      3.13697509      3.08911944      1.13615735
  C      2.48168711      3.37128322     -0.01718275
  C      0.10156691      3.78318340     -0.63573278
  C      0.12592702      5.23263497     -1.10550871
  C      2.48540098      2.76020262      3.51872201
  H      0.11401338      3.46573066      2.16626919
  H      4.17150379      2.89273853      1.32959630
  H      2.83668217      3.54654271     -1.01838268
  H      0.24256501      3.12284821     -1.49419247
  H     -0.83878000      3.52273713     -0.14446291
  H     -0.71530364      5.42004274     -1.76733285
  H      1.04882739      5.41601666     -1.65499079
  H      0.06712707      5.91548910     -0.25986388
  H      1.66527970      3.10704483      4.14348999
  H      3.41604271      3.24084603      3.82761540
  H      2.57374794      1.67859103      3.63407896
  N      5.11969601      7.03741237      1.70385999
  C      4.47348246      7.07259481      2.86454874
  N      5.10508083      7.89780413      3.69371787
  C      6.20746931      8.38408439      3.05970067
  C      6.21383522      7.84843965      1.81095995
  C      4.70501864      6.30767263      0.52765192
  C      3.62411434      7.05607451     -0.23614375
  C      4.75597784      8.16899663      5.05859178
  H      3.56757046      6.54503899      3.08069825
  H      6.87660000      9.05468573      3.57375071
  H      6.90491767      7.97040534      1.00315900
  H      5.57698263      6.16131343     -0.11042258
  H      4.33393339      5.32921876      0.83723483
  H      3.37785942      6.48390553     -1.13315460
  H      3.97409583      8.04251182     -0.53342082
  H      2.72722894      7.16675190      0.36889828
  H      3.78160543      8.65553608      5.11321331
  H      5.52287928      8.82612821      5.47831642
  H      4.71857386      7.22966656      5.61017526
 Cl      7.48839740     10.09134176      5.53752138
 Cl      6.45795617      4.58164317     11.86582867
 Cl      5.28990745      4.75421871      4.01027838
 Cl      3.11941460      5.02679193     -2.86276205
 Cl     -0.13622563      1.02925007      1.64600223

