#B3LYP/6-31+G(d) OPT FREQ

62, Energy =    -96.26168625 au

0 1
  N      4.67822858      4.50797325      4.53528928
  C      4.82707808      4.17450357      5.80910666
  N      4.92126225      5.27293805      6.54256554
  C      4.82792311      6.34481189      5.71064920
  C      4.67609499      5.86625278      4.44880938
  C      4.55938090      3.60429321      3.41802398
  C      3.51709665      2.52206858      3.68812218
  C      5.04057407      5.29326389      7.96895280
  H      4.87448457      3.17697926      6.19218943
  H      4.87741074      7.35155761      6.07042229
  H      4.57970459      6.37084086      3.50430943
  H      4.28872334      4.21074725      2.55214685
  H      5.54001992      3.15353517      3.23163881
  H      3.95333565      1.69212074      4.23780682
  H      3.10873607      2.13985238      2.75678126
  H      2.70792934      2.92807086      4.29073508
  H      4.15414017      4.82165427      8.39879242
  H      5.11358064      6.32245308      8.31325437
  H      5.93396854      4.74406803      8.26879914
  N      8.62809579      7.81319081      5.11236644
  C      8.72396318      6.71992903      4.36286399
  N      7.78413541      6.74868551      3.42303752
  C      7.05536213      7.88541098      3.58053858
  C      7.58713109      8.55715352      4.63593397
  C      9.54220041      8.22596289      6.15629146
  C     10.67789995      9.05622874      5.57788442
  C      7.51505038      5.70226875      2.48146638
  H      9.44056235      5.93685037      4.49789271
  H      6.22171945      8.10533683      2.94163813
  H      7.31354433      9.49200587      5.07940346
  H      8.98978100      8.82017713      6.88539963
  H      9.92813427      7.33436978      6.65120884
  H     11.25304512      9.49861587      6.39861691
  H     10.28209202      9.86892330      4.97203824
  H     11.33594689      8.44568528      4.96400783
  H      6.58848205      5.93181479      1.95605133
  H      7.41905967      4.77148830      3.04332868
  H      8.33319038      5.61006460      1.76618947
  N      1.52425258      4.40130513      0.95022543
  C      1.89595973      5.35571476      1.80040651
  N      1.22863552      5.20220047      2.93866605
  C      0.40977468      4.11899603      2.80809931
  C      0.59711014      3.61492837      1.55736101
  C      2.01312242      4.21133306     -0.39498343
  C      3.51353787      3.94817005     -0.39923684
  C      1.33122080      6.03329729      4.10254590
  H      2.65108650      6.10755186      1.61373820
  H     -0.21211409      3.78630226      3.61261022
  H      0.14576081      2.79634467      1.01538803
  H      1.45114518      3.36783608     -0.81697657
  H      1.79658617      5.11295042     -0.97491368
  H      3.84700016      3.78440233     -1.41981148
  H      3.74516872      3.06055074      0.18453781
  H      4.05584537      4.79771290      0.01094411
  H      2.08882972      6.79429528      3.93533538
  H      1.60728647      5.42476962      4.97696122
  H      0.37081106      6.50870911      4.30577713
 Cl      7.70443292      4.38207261      5.51602096
 Cl     -0.22765016      1.80025216     -0.97731225
 Cl      2.09424633      4.03939174      6.60428831
 Cl      4.55860377      7.17585826      1.34648421
 Cl     12.07285838     10.61658419      8.14838824

