62
Energy =    -96.26617080 au
  N      3.82049299      8.39565664      6.05783146
  C      2.83426575      7.51227949      5.96280426
  N      3.03678739      6.54600333      6.85417108
  C      4.17939972      6.82332099      7.54039031
  C      4.67275330      7.98856199      7.03824162
  C      3.94823339      9.59413881      5.26820751
  C      3.55272475     10.82049296      6.08319907
  C      2.22324277      5.38214882      7.06530239
  H      2.04552985      7.57158954      5.22440897
  H      4.50256946      6.16618486      8.32844421
  H      5.58047419      8.51890099      7.24118683
  H      4.99427947      9.66545462      4.95247375
  H      3.29307345      9.48919279      4.40093447
  H      3.66771947     11.71149437      5.47282133
  H      4.18680311     10.91745571      6.96197592
  H      2.51401171     10.74800686      6.40119667
  H      1.19490112      5.67201012      7.28019780
  H      2.64121080      4.82922122      7.91325654
  H      2.23186558      4.75134696      6.17615284
  N      4.97062047      7.69260362      1.87471352
  C      3.88417758      8.19535448      1.29909334
  N      4.21775440      8.70412371      0.11707812
  C      5.55265964      8.52398206     -0.07182653
  C      6.02637768      7.88714461      1.03457092
  C      4.99256683      7.01735074      3.14793990
  C      5.30617101      5.53540452      2.98011328
  C      3.34739931      9.35179821     -0.82248593
  H      2.90350833      8.19970675      1.75962973
  H      6.01072543      8.82682033     -0.99941515
  H      7.01937472      7.58744579      1.29609058
  H      5.74266499      7.49353119      3.79511403
  H      4.00004709      7.13786952      3.58335893
  H      5.26910254      5.05552402      3.95387850
  H      6.29866924      5.39335833      2.55911813
  H      4.57589801      5.06017153      2.32685651
  H      3.86404957      9.38061599     -1.79116394
  H      3.13547236     10.37139510     -0.49822310
  H      2.41000850      8.80433296     -0.90138476
  N      7.39926101      5.54040256      8.33642512
  C      8.35310287      6.09015014      7.58553081
  N      8.25878636      5.61565506      6.34833316
  C      7.25251091      4.69435203      6.32363169
  C      6.71665908      4.64247956      7.56898980
  C      7.21747556      5.71489454      9.75511476
  C      7.10369719      7.18484866     10.13842362
  C      9.10900039      5.99825149      5.26039983
  H      9.01191370      6.87758200      7.88147085
  H      7.00917243      4.14737251      5.43643650
  H      5.90156921      4.07460686      7.97527676
  H      6.30440060      5.17955719     10.02911830
  H      8.07636864      5.26001624     10.25977463
  H      6.89618162      7.26430985     11.20232219
  H      6.29110218      7.65520201      9.59028343
  H      8.02855345      7.71387982      9.92559592
  H      8.81343217      6.99075640      4.90806542
  H      9.01142899      5.27833995      4.45067222
  H     10.13974975      6.01928005      5.61355421
 Cl      4.01547015      4.24663516      9.63548716
 Cl      1.29368832      8.14184918      3.24094262
 Cl      5.54098003      9.26719284     -3.26231107
 Cl     10.46308556      4.81248482      8.40722667
 Cl      7.15164129      8.71254143      5.06550387
