#B3LYP/6-31+G(d) OPT FREQ

62, Energy =    -96.24914535 au

0 1
  N      6.55765269      0.87788035      1.70229825
  C      6.29604016     -0.11268730      0.85594052
  N      6.28928570      0.37093159     -0.37995577
  C      6.55084680      1.70990049     -0.32063808
  C      6.72175889      2.02658539      0.99096166
  C      6.68594194      0.77474895      3.13693903
  C      7.85479132     -0.12759078      3.51173473
  C      6.03942400     -0.41879031     -1.55277940
  H      6.13703303     -1.17514398      1.05042019
  H      6.59721362      2.32475366     -1.19559561
  H      6.93819473      2.95462764      1.49353700
  H      6.84659001      1.79207157      3.51239442
  H      5.75532505      0.36997852      3.54361814
  H      7.92616433     -0.19803180      4.59311114
  H      8.78475898      0.28843644      3.13237506
  H      7.71966105     -1.12535679      3.10113599
  H      6.85609631     -0.30546178     -2.26499466
  H      5.10602662     -0.11185962     -2.02549944
  H      5.96495070     -1.46551234     -1.23074683
  N      4.11606418      7.53051869     10.36472647
  C      3.87073706      8.83253044     10.16657256
  N      2.56748119      8.99308654      9.90969927
  C      1.97051410      7.76984189      9.95610727
  C      2.93780060      6.85600616     10.24183009
  C      5.38373296      6.93075930     10.69409256
  C      5.67156087      7.05012383     12.18758810
  C      1.88811975     10.22096603      9.61616494
  H      4.60417806      9.61278099     10.18473964
  H      0.92627455      7.67746949      9.71125490
  H      2.92144407      5.78506197     10.33146136
  H      5.31626646      5.87139422     10.41174030
  H      6.16915910      7.42063253     10.11299799
  H      6.62760726      6.58586585     12.40961238
  H      4.90069566      6.53429636     12.75423379
  H      5.70416728      8.09278781     12.50231727
  H      1.62133177     10.74249231     10.53689479
  H      0.96610944      9.96173618      9.07208548
  H      2.51895786     10.86552394      9.00657905
  N      2.91132380      5.16779969      6.22307057
  C      3.84185072      4.50479807      6.90445528
  N      4.71554616      3.98977938      6.04836878
  C      4.34432699      4.32847451      4.78426714
  C      3.21237608      5.07460604      4.89437117
  C      1.82552613      5.93857712      6.78559219
  C      2.07494629      7.43085151      6.62422343
  C      5.86556824      3.20051563      6.38326352
  H      3.89803172      4.38925091      7.98750722
  H      4.96466301      4.07587189      3.94237184
  H      2.60716201      5.53267396      4.14004267
  H      0.89600498      5.66367425      6.28197139
  H      1.74287227      5.68417875      7.84255306
  H      1.24411785      7.97405813      7.07691132
  H      2.14083134      7.70298063      5.57351491
  H      3.00163508      7.71552288      7.11798923
  H      6.15006809      3.39837918      7.41390681
  H      6.67095091      3.45492922      5.69019670
  H      5.63632250      2.13931885      6.27487473
 Cl      7.46878584     35.59326539    -24.87143319
 Cl      7.24721869      4.09738402      3.44477143
 Cl     -0.61364365      8.71014851      8.25856799
 Cl      4.34831910      3.89466179      9.96607539
 Cl      5.95941698     -3.12584357      0.31336075

