#B3LYP/6-31+G(d) OPT FREQ

62, Energy =    -96.27190018 au

0 1
  N      3.12815634      6.86569918      7.05787795
  C      2.67027226      6.86344829      8.30553163
  N      3.44149137      6.08473699      9.05482645
  C      4.42265080      5.57456215      8.25987160
  C      4.22752267      6.06498759      7.00473093
  C      2.54985142      7.59215262      5.95428200
  C      3.53884234      8.60538309      5.39168568
  C      3.26171467      5.84339315     10.45682429
  H      1.79887462      7.38661017      8.67659440
  H      5.16355605      4.90079173      8.63619714
  H      4.81374563      5.94174575      6.11241053
  H      2.23710755      6.87321158      5.18683271
  H      1.65940679      8.09822037      6.33344651
  H      3.10830814      9.08753325      4.51907877
  H      4.46902529      8.12449566      5.09730622
  H      3.76548743      9.36800249      6.13524238
  H      3.17335891      4.76601271     10.65425802
  H      2.35685981      6.35270674     10.78090889
  H      4.11605498      6.22879333     11.01458148
  N      6.30631916      5.51776407      0.42393030
  C      5.83571992      5.86284095      1.62001834
  N      4.51465164      5.75181015      1.61233267
  C      4.12937855      5.32237387      0.37645535
  C      5.25771588      5.17154268     -0.37077829
  C      7.69074022      5.46737999      0.02239132
  C      8.41439450      4.33305113      0.73839096
  C      3.67163882      6.07616731      2.72560454
  H      6.38959946      6.18620111      2.49342144
  H      3.10083445      5.15584239      0.13146244
  H      5.43152517      4.88429301     -1.39622568
  H      7.70025495      5.30923759     -1.06467527
  H      8.16117388      6.42396238      0.26436302
  H      9.45520083      4.31244285      0.42740780
  H      7.95917948      3.38021011      0.47989354
  H      8.36934245      4.46737076      1.81750690
  H      2.99830211      5.25635174      2.97525153
  H      3.05998492      6.94916400      2.49747708
  H      4.31404525      6.29708475      3.57680407
  N      0.04558713      4.56837125      9.63431255
  C     -0.74750969      5.43516211      9.01391019
  N     -0.40809332      5.49217139      7.73103833
  C      0.63934292      4.64262940      7.52579656
  C      0.92057273      4.05748080      8.72113119
  C      0.00257415      4.23774618     11.03593947
  C     -1.19184967      3.34265840     11.34871017
  C     -0.97599920      6.37386974      6.75247782
  H     -1.53389632      5.99753208      9.47127690
  H      1.06472238      4.53159349      6.54493276
  H      1.67210042      3.35220525      9.02508163
  H      0.93694622      3.71480449     11.27483402
  H     -0.05798789      5.17111125     11.60079992
  H     -1.19577253      3.10065870     12.40769302
  H     -1.11754693      2.41566009     10.78507752
  H     -2.13081140      3.83480468     11.09762673
  H     -0.47334538      6.19782824      5.79732865
  H     -0.82959226      7.40460064      7.07767042
  H     -2.04467495      6.18540427      6.64547278
 Cl      6.52053200      6.78591208      4.59851079
 Cl      0.82797312      5.22738327      4.20641196
 Cl      0.08764758      7.92897788      9.92717818
 Cl      6.91346450      4.82176546     -3.15819015
 Cl      2.89798936      2.58481567     11.02807261

