62
Energy =    -96.23292588 au
  N      7.20265978      1.81380176      3.16807018
  C      7.19104087      2.09374772      1.85201726
  N      8.14551507      1.36381361      1.24671350
  C      8.76231189      0.60432369      2.19485991
  C      8.17483444      0.88167493      3.38829341
  C      6.32965077      2.36092004      4.17283927
  C      5.14649672      1.43492866      4.43929686
  C      8.48006688      1.36509803     -0.14753044
  H      6.53780665      2.79151893      1.37137281
  H      9.59121726     -0.02467243      1.92278698
  H      8.39852635      0.53908277      4.37696606
  H      6.92372109      2.48887454      5.08454842
  H      5.97807662      3.33800224      3.83410024
  H      4.50486633      1.87332639      5.19795277
  H      5.49687150      0.47099847      4.79906824
  H      4.56294565      1.27947685      3.53315080
  H      7.73928408      0.80630146     -0.72249271
  H      9.45856256      0.87677700     -0.25299094
  H      8.52619961      2.38575878     -0.52620861
  N     13.79253639      4.23875426      5.49309569
  C     13.67905395      3.23958278      6.38969962
  N     12.41103581      3.20519076      6.83689321
  C     11.71871580      4.20068081      6.21113379
  C     12.57181041      4.83756192      5.36912321
  C     14.95379086      4.55287784      4.70266470
  C     14.79783518      4.00560409      3.28838428
  C     11.85146497      2.28354196      7.78109350
  H     14.46339928      2.57242937      6.67864089
  H     10.67253876      4.33623763      6.39241868
  H     12.40409818      5.61239962      4.64172519
  H     15.05206324      5.64021040      4.65589888
  H     15.83272002      4.13250592      5.19966574
  H     15.69385826      4.21125745      2.71025074
  H     13.95279507      4.49871184      2.81234586
  H     14.62286848      2.93266677      3.30839412
  H     12.38458537      1.33582559      7.74160574
  H     10.80201459      2.12546950      7.51635613
  H     11.90333105      2.68502712      8.79546329
  N     11.38082928      3.16010641      1.26302949
  C     10.56752830      4.13380212      1.65619406
  N     10.16003481      3.88848952      2.89814264
  C     10.77883721      2.75336343      3.33069110
  C     11.54476331      2.29695622      2.30514315
  C     11.99778066      3.02731757     -0.03343015
  C     13.39405634      3.63841318     -0.04145529
  C      9.31633523      4.73684140      3.68690840
  H     10.24727647      4.95763964      1.05237840
  H     10.58746331      2.36489786      4.31082867
  H     12.12295660      1.40331077      2.19530129
  H     12.02639490      1.95596619     -0.26160630
  H     11.36476094      3.53835189     -0.76254624
  H     13.78157984      3.65757505     -1.05578499
  H     14.06806638      3.05566504      0.57941138
  H     13.35371297      4.65438269      0.34417205
  H      9.86050122      5.65227312      3.92503760
  H      9.04795325      4.20686853      4.60066798
  H      8.41713978      4.99838650      3.12891200
 Cl      8.89610262      2.48086545      6.26698321
 Cl    -47.48523971     42.44861044     44.55698192
 Cl     11.30451884     -0.21550459      0.29096189
 Cl     12.20440481      6.17222816      2.40972484
 Cl    -15.96428623     13.46285546    -14.36802933
