62
Energy =    -96.18646148 au
  N      6.73932646     16.35623088     14.07711574
  C      6.32120631     17.39061399     13.36077671
  N      5.20513564     17.05754488     12.72478633
  C      4.88709082     15.78009620     13.06522589
  C      5.85416054     15.33609337     13.91386871
  C      7.86467175     16.40982759     14.97666116
  C      7.37166997     16.66858903     16.39723596
  C      4.36712792     17.96843041     12.00093614
  H      6.88545977     18.30540264     13.26143367
  H      4.00166981     15.29300529     12.70904789
  H      5.96042978     14.39196587     14.40858350
  H      8.41106490     15.46516361     14.91927240
  H      8.50517803     17.22607028     14.62735345
  H      8.19842397     16.97727908     17.03004897
  H      6.91916067     15.77575471     16.82274476
  H      6.62103182     17.45304345     16.38169594
  H      3.64953761     18.39429995     12.71542854
  H      3.83023595     17.44557466     11.21266819
  H      4.97752583     18.76737153     11.58205671
  N      9.37257732    -12.62793644    -10.94974104
  C      8.68856363    -12.24716891    -12.04452660
  N      9.29335337    -12.77825183    -13.13671690
  C     10.37934698    -13.49968436    -12.69146825
  C     10.41500287    -13.40882645    -11.33825005
  C      9.04736184    -12.33370856     -9.57780786
  C      7.90403597    -13.21581448     -9.08671767
  C      8.91863993    -12.57350172    -14.50350818
  H      7.82575097    -11.61666064    -12.06373437
  H     11.02600456    -14.01240010    -13.37163184
  H     11.10798641    -13.76870170    -10.58188103
  H      9.95733885    -12.55056280     -8.99506787
  H      8.78023879    -11.27708040     -9.49369917
  H      7.69084532    -12.98083175     -8.04894102
  H      8.19714131    -14.26026730     -9.14499746
  H      7.00042293    -13.06377960     -9.67610068
  H      9.03146641    -13.50423782    -15.06021847
  H      9.54774860    -11.81070669    -14.97253839
  H      7.88007903    -12.25061258    -14.55589196
  N      5.55502710     21.12361823     16.38558485
  C      6.55943781     21.99532531     16.58963205
  N      7.59637864     21.63878226     15.80472103
  C      7.23543120     20.52514974     15.10298156
  C      5.96357604     20.21130246     15.45727954
  C      4.24384772     21.14943466     16.97736576
  C      3.33036097     22.13110537     16.24527119
  C      8.88607288     22.25784499     15.73834968
  H      6.53954035     22.83693018     17.24977395
  H      7.90792084     20.03972795     14.40784818
  H      5.31323129     19.40018659     15.16058395
  H      3.83516927     20.13966887     16.89157351
  H      4.33286319     21.42447240     18.03178226
  H      2.37104475     22.18821250     16.75007086
  H      3.16577821     21.79004838     15.22808169
  H      3.77137647     23.12399091     16.21836725
  H      8.79182153     23.34517369     15.77412962
  H      9.36057343     21.95852573     14.80297400
  H      9.51909938     21.92990647     16.56901401
 Cl      9.09409182     18.91628555     13.05088331
 Cl      3.80036679     17.87045327     15.27825948
 Cl     11.88133017    -13.56743629     -8.60008816
 Cl     -8.42767809     26.74394288     -9.88536729
 Cl     -7.44149078    -19.27896237     34.34397471
