62
Energy =    -96.24934316 au
  N      2.12883057      5.97191241      3.39384170
  C      2.95759804      6.77804429      2.71340700
  N      2.90794338      6.44336417      1.41853051
  C      1.92752005      5.50515533      1.25311518
  C      1.44141573      5.20883987      2.48119107
  C      1.83862155      6.03113014      4.80531641
  C      0.55278674      6.81053971      5.06056665
  C      3.61843570      7.06997153      0.34367897
  H      3.73321764      7.36344615      3.16171273
  H      1.70738331      5.11662469      0.28007275
  H      0.68306450      4.52223609      2.79460753
  H      1.76152164      5.00838790      5.18588523
  H      2.67328448      6.53417619      5.29783665
  H      0.40927832      6.95434004      6.12783708
  H     -0.30570908      6.27917686      4.65726343
  H      0.62737357      7.77911024      4.57126400
  H      3.10470753      7.98734399      0.04999423
  H      3.65602211      6.37110577     -0.49489494
  H      4.62802914      7.32401215      0.66269851
  N      3.65966384      2.54311737      1.80967962
  C      3.76045654      2.70412195      3.13188862
  N      4.58026037      3.72898498      3.38233818
  C      5.00745862      4.22534924      2.18215618
  C      4.43134475      3.48636876      1.19792201
  C      2.89534096      1.52068334      1.13685172
  C      1.77021072      2.11311521      0.29926959
  C      4.95269582      4.18894783      4.68928237
  H      3.22784585      2.16585658      3.89529053
  H      5.68206467      5.05293568      2.11627799
  H      4.42291706      3.62765957      0.12259562
  H      3.57426891      0.96339823      0.48431372
  H      2.50196029      0.84692770      1.90286250
  H      1.24603836      1.31513456     -0.21887092
  H      2.18288956      2.79836842     -0.44110437
  H      1.06595076      2.64888109      0.92916898
  H      4.22104814      3.81473986      5.40785751
  H      4.96780856      5.27727867      4.71195895
  H      5.94205860      3.81388243      4.96024465
  N      0.50059231      1.57528563      9.89875482
  C      1.11257628      1.42514936      8.72976669
  N      1.45206402      0.14818249      8.57885224
  C      1.03563754     -0.53126655      9.68985963
  C      0.43731243      0.36430674     10.52000813
  C     -0.04509389      2.80019407     10.43297552
  C     -1.55687620      2.69231266     10.58919657
  C      2.13835461     -0.39963906      7.44280931
  H      1.32260509      2.18820494      7.99872169
  H      1.19278893     -1.58335341      9.80685931
  H     -0.05726303      0.25267850     11.48985543
  H      0.39705120      2.96958671     11.41782003
  H      0.23492071      3.61304980      9.75781585
  H     -1.95657357      3.64660474     10.91933420
  H     -1.78377444      1.94022476     11.34530070
  H     -2.02560032      2.42018760      9.64617646
  H      1.52821602     -1.16888617      6.96839566
  H      3.08798463     -0.83836418      7.75116347
  H      2.32510142      0.40874933      6.73244669
 Cl     39.15194436     10.97908329      9.86182793
 Cl      2.25860169      2.59995794      5.93859685
 Cl      3.51403851      4.29814983     -1.70317817
 Cl      1.86995106      8.97806845      2.70221557
 Cl     -1.22862502      0.45456611     13.16331353
