62
Energy =    -96.26925513 au
  N      0.92629787      7.33192315      7.23166946
  C      1.29067808      8.61039179      7.22661618
  N      2.58751711      8.68554506      6.94937381
  C      3.06260509      7.42479518      6.75647427
  C      2.01698659      6.57212712      6.93529927
  C     -0.39598617      6.81776235      7.47866026
  C     -1.08758439      6.44767402      6.17140598
  C      3.34826332      9.90030585      6.88675460
  H      0.69810633      9.46909616      7.52405232
  H      4.10018811      7.24206463      6.55970610
  H      1.96873395      5.50309380      6.94062526
  H     -0.27754807      5.93083566      8.11538626
  H     -0.96484832      7.58821697      8.00149906
  H     -2.08044704      6.06080521      6.38200004
  H     -0.52258104      5.67981660      5.64880358
  H     -1.18057036      7.31914248      5.52519949
  H      3.39376589     10.26774849      5.86019989
  H      4.36120688      9.70325393      7.23474928
  H      2.86041325     10.64607847      7.51330855
  N      9.02157878      5.67959654      8.26299553
  C      8.82563872      6.74088333      9.04794692
  N      9.73077476      6.72855477     10.02375956
  C     10.52954887      5.63925741      9.86385638
  C     10.08808778      4.98093329      8.75848875
  C      8.26991436      5.37569768      7.07040208
  C      9.11148507      5.61375873      5.82005037
  C      9.87452826      7.68132246     11.08883038
  H      8.03891401      7.46008699      8.89006911
  H     11.34318581      5.47035191     10.56080885
  H     10.44143742      4.08070765      8.30094161
  H      7.94026664      4.33355213      7.11522036
  H      7.39544260      6.03241830      7.06201867
  H      8.52477351      5.37597522      4.93495404
  H     10.00489701      4.99257689      5.82503886
  H      9.41098762      6.66008054      5.76492535
  H     10.76946042      7.39837134     11.66057447
  H      8.99938303      7.65825204     11.73856244
  H      9.99006489      8.68653454     10.68380452
  N      1.73749092      8.46431078     10.61487225
  C      2.13661183      7.21242351     10.41301857
  N      3.40556391      7.22479164     10.01619847
  C      3.83359845      8.51430110      9.97055144
  C      2.78348808      9.29540228     10.34307670
  C      0.43178892      8.93056943     11.01732475
  C     -0.54517975      7.79588600     11.26198100
  C      4.17776892      6.06366881      9.67859985
  H      1.54318839      6.30820850     10.42855647
  H      4.82224027      8.76187190      9.63879442
  H      2.67504226     10.35897673     10.38837351
  H      0.55313399      9.52557912     11.92849112
  H      0.08389137      9.61408558     10.22836981
  H     -1.52248448      8.21038842     11.49296339
  H     -0.22394176      7.18005193     12.09920403
  H     -0.63678208      7.15912530     10.38793523
  H      4.72117486      5.70198354     10.55305444
  H      4.89314045      6.33471247      8.90185382
  H      3.49685377      5.28581518      9.33367504
 Cl      1.03912608      4.50063419      9.31004105
 Cl      0.58266158     11.24681458      8.71300607
 Cl     12.54210335      6.17160193     12.23938894
 Cl      6.20445994      8.02046067      7.65663385
 Cl     -3.91478053    -10.60335275    -27.16257304
