#B3LYP/6-31+G(d) OPT FREQ

62, Energy =    -95.77271466 au

0 1
  N     -2.50077739     -1.81883180     -4.04776611
  C     -2.38673919     -2.93170205     -4.78237446
  N     -1.61027344     -3.79245653     -4.11671092
  C     -1.24522165     -3.23096139     -2.92475831
  C     -1.80888664     -1.98376480     -2.87954438
  C     -3.31753973     -0.65077820     -4.39701736
  C     -4.42242647     -0.42726563     -3.38151675
  C     -1.36288823     -5.17774883     -4.49978788
  H     -2.88906583     -3.13431758     -5.71093585
  H     -0.64817506     -3.75831622     -2.20364284
  H     -1.79192401     -1.23632588     -2.10818770
  H     -2.64940472      0.20758222     -4.46112492
  H     -3.72376509     -0.84480634     -5.38699683
  H     -5.00656456      0.44138536     -3.68222655
  H     -4.01908230     -0.24731058     -2.38722166
  H     -5.07455808     -1.29338420     -3.32735929
  H     -1.95607039     -5.82348932     -3.85797963
  H     -0.30240036     -5.38800131     -4.39077486
  H     -1.67803817     -5.31748753     -5.52758544
  N     20.90087061     -0.53729575     10.49989491
  C     21.43632000     -0.51814048      9.27349312
  N     21.58091671     -1.78184641      8.86234302
  C     21.10416872     -2.62114566      9.83062953
  C     20.67265661     -1.83526827     10.86574107
  C     20.52847626      0.64689957     11.28247414
  C     19.03462006      0.68685057     11.54471763
  C     21.98543822     -2.19359028      7.52301055
  H     21.64652301      0.35695274      8.68558334
  H     21.08349574     -3.68783039      9.70283443
  H     20.20531169     -2.09912936     11.79628384
  H     21.09983253      0.61845170     12.20985730
  H     20.85190155      1.51041858     10.70588390
  H     18.80187832      1.58219137     12.11951705
  H     18.70589126     -0.18334998     12.10897064
  H     18.48173055      0.70965455     10.61082085
  H     21.10374522     -2.53332534      6.98639036
  H     22.72070501     -2.98918341      7.60750192
  H     22.40406911     -1.33762635      7.00601138
  N      0.63758770     19.20986632     11.57567423
  C      1.68028938     20.04245224     11.67915484
  N      2.39811122     19.95273262     10.55506076
  C      1.78856900     19.06914223      9.70829224
  C      0.67465160     18.60001319     10.35200633
  C     -0.42590976     19.05262024     12.57451014
  C     -1.77411314     19.46467849     12.01368065
  C      3.52662310     20.80673430     10.20274812
  H      1.87244516     20.72242338     12.48929480
  H      2.16912387     18.86524969      8.72433031
  H     -0.08790464     17.91854790     10.02328630
  H     -0.42335523     18.01058760     12.89303523
  H     -0.14460362     19.67205424     13.42297564
  H     -2.53036086     19.33984532     12.78744050
  H     -2.05139867     18.85601491     11.15558133
  H     -1.75674757     20.50286569     11.69708028
  H      3.19224312     21.53260372      9.46649592
  H      4.32487588     20.18670394      9.80390062
  H      3.85701370     21.33302221     11.09104834
 Cl      5.56875048      5.92478300     13.54504840
 Cl    -32.05813969     28.70183704     31.18259318
 Cl     11.51285574     -5.77447693     -3.99803626
 Cl     11.83121117      6.51893698     -0.07658488
 Cl      7.05501337     15.31235142     -5.43427228

