#B3LYP/6-31+G(d) OPT FREQ

62, Energy =    -96.25657323 au

0 1
  N      5.03809868      4.11118239     10.27714682
  C      5.79575408      3.02039461     10.19681338
  N      5.88876621      2.65965587      8.91762947
  C      5.18354911      3.54746258      8.16275596
  C      4.64931218      4.46115872      9.01598106
  C      4.74614325      4.80577372     11.50643324
  C      5.57841311      6.07778316     11.61965806
  C      6.60011770      1.52571823      8.39876820
  H      6.16543006      2.51273178     11.08955822
  H      5.12984212      3.43774860      7.09459779
  H      4.02618743      5.30954051      8.82228475
  H      3.67955892      5.04303548     11.53192656
  H      4.99692602      4.11331288     12.32125964
  H      5.32630690      6.59513926     12.54027485
  H      5.39506971      6.74684835     10.78022934
  H      6.63536733      5.82651006     11.64573178
  H      6.49766231      1.52636308      7.31193014
  H      6.18696072      0.60349599      8.80770462
  H      7.65443215      1.58561442      8.66891076
  N      4.93571710      1.07119570      2.14259898
  C      5.86300266      1.98554785      2.40454602
  N      7.05698422      1.40833075      2.41647842
  C      6.89289844      0.08740838      2.12961702
  C      5.56359912     -0.12704444      1.95345616
  C      3.53101786      1.34523821      1.98101791
  C      3.22749117      1.69551769      0.52752966
  C      8.28474714      2.10757214      2.64811141
  H      5.66999039      3.01405224      2.61602458
  H      7.71833512     -0.59244117      2.07560253
  H      5.02594240     -1.02333152      1.72204404
  H      2.96508853      0.46694490      2.30445847
  H      3.28360389      2.18481665      2.63406466
  H      2.21419808      2.07479662      0.43299052
  H      3.33908324      0.82116221     -0.10974108
  H      3.92811749      2.45664120      0.18954779
  H      8.39897212      2.86671291      1.87156249
  H      9.11767074      1.40926876      2.61572742
  H      8.23844649      2.59075809      3.62503157
  N      6.69355880      6.57854189      4.40266633
  C      6.88252864      7.45021451      3.42054194
  N      6.85861883      6.79597653      2.26234277
  C      6.64076216      5.47320974      2.51426744
  C      6.53301164      5.33545630      3.86404082
  C      6.61770968      6.93822144      5.79679434
  C      5.16861956      6.93142340      6.26962796
  C      7.03879474      7.36106971      0.95498792
  H      7.08049647      8.50804716      3.61661479
  H      6.57800098      4.75756358      1.70910888
  H      6.35622317      4.46087498      4.46500543
  H      7.20762062      6.22373009      6.37568260
  H      7.04011617      7.94629720      5.88509669
  H      5.13265051      7.19969590      7.32089329
  H      4.72317224      5.94733401      6.13833195
  H      4.59475685      7.66412511      5.70802601
  H      8.05553738      7.73941684      0.84291025
  H      6.34399408      8.18707746      0.80241878
  H      6.85627351      6.58392412      0.21425154
 Cl      6.00622372      2.20256808     13.14868981
 Cl      6.37610215      3.29373987      0.05467345
 Cl      5.77805242      2.26584578      5.15547043
 Cl      7.57590557     10.05613682      4.87824672
 Cl    -31.82354309     -1.34893510     -7.57207346

