#B3LYP/6-31+G(d) OPT FREQ

62, Energy =    -96.26234610 au

0 1
  N      6.10839543      3.71529324      6.86140590
  C      5.99451171      2.78400200      7.80197414
  N      5.10052484      1.88017466      7.42727973
  C      4.65672119      2.22429243      6.18648402
  C      5.29159890      3.36781796      5.82461618
  C      7.12182289      4.74263467      6.87588831
  C      6.69812230      6.00005090      6.13771766
  C      4.65929527      0.77121676      8.21872162
  H      6.48846532      2.80087168      8.75114211
  H      3.93614628      1.63582340      5.65779686
  H      5.19932171      3.94108305      4.92115408
  H      7.33930267      4.97289361      7.92211204
  H      8.03137788      4.31539712      6.43808951
  H      7.53421371      6.69343700      6.10694526
  H      5.86314941      6.47190548      6.64907265
  H      6.39369915      5.77837895      5.12001470
  H      4.18787952      0.03103795      7.57509150
  H      3.93721309      1.12149957      8.96080594
  H      5.51668628      0.32430331      8.72063782
  N      8.58564667      5.64072607      3.01315140
  C      7.77153665      4.58994848      2.96899806
  N      8.29612025      3.60406350      3.68916760
  C      9.48245042      4.04050385      4.20343800
  C      9.66201572      5.32253231      3.78003139
  C      8.39389480      6.90740558      2.34467214
  C      7.13771466      7.61632138      2.83479810
  C      7.73854198      2.29282513      3.86041895
  H      6.80059733      4.56142716      2.50373098
  H     10.08192309      3.41520279      4.83246624
  H     10.45107499      6.04943883      3.92302680
  H      9.29172692      7.50713744      2.55031612
  H      8.31909882      6.72111263      1.26918820
  H      6.97314542      8.50679324      2.23541163
  H      7.25513889      7.91837875      3.87168699
  H      6.26402203      6.97359767      2.74967044
  H      7.83636566      1.97678600      4.90728661
  H      8.27244975      1.57536539      3.23461153
  H      6.68913574      2.30985175      3.57678278
  N      2.28184939      5.17314017      5.84972786
  C      1.80372965      5.38809181      7.07524247
  N      2.31412818      6.53057059      7.54574362
  C      3.19279388      7.01214397      6.61120422
  C      3.16357269      6.16982908      5.54899847
  C      1.93419816      4.08150098      4.97751725
  C      0.60029286      4.34166021      4.28315600
  C      2.16569123      6.97538121      8.90040663
  H      1.04840579      4.80743721      7.56032907
  H      3.75236130      7.91042048      6.77195110
  H      3.70904539      6.16193985      4.62234886
  H      2.73179388      3.99383363      4.23473459
  H      1.88711810      3.17048647      5.57683854
  H      0.36032652      3.50732048      3.63047620
  H      0.66528956      5.24227211      3.67747275
  H     -0.20282126      4.46105154      5.00848327
  H      1.11929585      7.19087045      9.12285595
  H      2.76690539      7.86682552      9.06238121
  H      2.51105826      6.16717883      9.55315241
 Cl      8.18752282      1.47430260      7.05147234
 Cl    -25.20610590     15.53930836     18.22429492
 Cl     11.31793787      8.02790865      3.40807987
 Cl      4.55729853      4.84488894      2.85861120
 Cl      3.11764371      3.83161330      8.69467607

