#B3LYP/6-31+G(d) OPT FREQ

62, Energy =    -96.26856403 au

0 1
  N      3.41783657      9.15648955      6.44611459
  C      4.64213517      8.85428852      6.86835011
  N      4.55260975      7.97087015      7.85508008
  C      3.23272982      7.70295206      8.06873665
  C      2.51867744      8.44798120      7.17977798
  C      3.08374790     10.03290255      5.35086960
  C      3.44084185      9.37532951      4.02265223
  C      5.67108244      7.40260362      8.55172205
  H      5.58368487      9.21740193      6.47504236
  H      2.91295256      6.99800315      8.80749032
  H      1.46165951      8.58923657      7.01665121
  H      2.00320698     10.22523059      5.41638299
  H      3.63785449     10.96733109      5.46734695
  H      3.17733579     10.04012938      3.20525478
  H      2.88374052      8.44903633      3.90581722
  H      4.50692403      9.15980607      3.97343582
  H      5.63347216      6.30982344      8.48772747
  H      5.64697112      7.69173587      9.60268554
  H      6.58557956      7.76971139      8.08930994
  N      6.52521293      0.42327269      8.56170285
  C      7.17535615      1.58098802      8.63075873
  N      8.44558386      1.34749953      8.93740161
  C      8.60660092     -0.00295755      9.05602917
  C      7.39928220     -0.58679978      8.82288414
  C      5.12051970      0.27419965      8.26659485
  C      4.90715678     -0.67581644      7.09604101
  C      9.46761781      2.33757075      9.11393241
  H      6.72298172      2.55005565      8.47142986
  H      9.55656078     -0.44056465      9.28101364
  H      7.08141859     -1.62506513      8.84120563
  H      4.62400024     -0.13586086      9.15057066
  H      4.72559531      1.27232504      8.06124599
  H      3.85336862     -0.69619627      6.83208025
  H      5.21436495     -1.68110780      7.38246834
  H      5.48189692     -0.35425638      6.23009040
  H     10.20080772      2.28691127      8.29181865
  H      9.98901951      2.16642161     10.05525654
  H      9.00806098      3.32301313      9.12233475
  N      6.89079256      5.18017129      5.63716022
  C      7.97062756      5.87678514      5.96939632
  N      8.96721753      5.03324076      6.21564992
  C      8.51283718      3.76248339      6.03847390
  C      7.20429243      3.85616003      5.67740218
  C      5.60451032      5.74281655      5.31673419
  C      5.22818724      5.48450669      3.86305446
  C     10.30007987      5.37924488      6.62187642
  H      8.00847432      6.96062655      6.02234098
  H      9.17645356      2.92516829      6.16043703
  H      6.47959357      3.09355209      5.48658010
  H      4.87285504      5.29416857      5.99574173
  H      5.66977372      6.81606551      5.50085746
  H      4.25248046      5.91688483      3.66043929
  H      5.18410907      4.41820374      3.65486639
  H      5.95621556      5.94308139      3.19685902
  H     10.71468433      6.12642303      5.94691370
  H     10.90870432      4.46887206      6.60448003
  H     10.28962893      5.79010363      7.63166706
 Cl      7.70578287      9.08541081      6.00941064
 Cl     11.46390372      2.26395507      6.52214597
 Cl     -0.11432277     10.04391688      6.14365897
 Cl      5.98149968     -3.48422675      8.87073151
 Cl      5.21967175      4.10627108      8.15857701

