62
Energy =    -96.27136220 au
  N      2.78768659      2.98973372      7.21639799
  C      3.51052392      3.29510981      8.28688070
  N      4.79879661      3.19300151      7.97235243
  C      4.89664741      2.81412236      6.66625699
  C      3.62986507      2.68671794      6.18844656
  C      1.34737229      3.02974267      7.15284497
  C      0.89116984      4.06683299      6.13333397
  C      5.92144259      3.44053386      8.83244335
  H      3.06153927      3.53880777      9.24812203
  H      5.85598345      2.70021980      6.19948052
  H      3.26640547      2.44942957      5.20460942
  H      0.98348315      2.04039140      6.86120132
  H      0.99088066      3.26648949      8.16075195
  H     -0.19430122      4.10568512      6.11305336
  H      1.25156039      3.81002275      5.13917270
  H      1.26900440      5.05022750      6.40334614
  H      5.78151579      4.37699598      9.37003280
  H      6.81919376      3.49546627      8.21109095
  H      6.03042252      2.63294296      9.55777397
  N      6.50220460      6.48139107      4.06674366
  C      5.47382308      6.98780463      3.39631807
  N      4.54029899      6.04728198      3.27989273
  C      4.98542482      4.91735477      3.89849441
  C      6.22245919      5.18722801      4.39204478
  C      7.71044846      7.20142501      4.38918463
  C      7.98297000      7.15758321      5.88720231
  C      3.26452661      6.15666781      2.63067437
  H      5.46579606      8.00681539      3.01379796
  H      4.38772898      4.02708575      3.90687135
  H      6.90311660      4.56782674      4.94992649
  H      8.54408259      6.73948690      3.85119458
  H      7.57562463      8.22629103      4.02739787
  H      8.87880881      7.73021904      6.11086346
  H      8.13175735      6.13257810      6.22033328
  H      7.14897843      7.58951625      6.43523484
  H      2.83145327      5.15605855      2.56913255
  H      3.38383888      6.57566044      1.63232042
  H      2.59845506      6.80218288      3.20477930
  N      7.99979631      1.59403123      3.62397334
  C      7.19235953      0.71001710      4.19869426
  N      5.95015052      0.90954738      3.76643882
  C      5.97411157      1.90995089      2.84298525
  C      7.25744441      2.34245241      2.75641294
  C      9.42620536      1.66979962      3.79221422
  C     10.12629444      0.87622386      2.69491724
  C      4.81046081      0.09795879      4.07498458
  H      7.48184477      0.02049556      4.96332240
  H      5.07702682      2.24001167      2.35856783
  H      7.69210736      3.11995040      2.16349726
  H      9.71624882      2.72353182      3.78154895
  H      9.66652262      1.25941863      4.77406196
  H     11.18795378      0.78614364      2.90916754
  H      9.99854741      1.36090130      1.72926568
  H      9.68047653     -0.11574909      2.64366919
  H      3.92182925      0.57904280      3.66924627
  H      4.71014017     -0.01681784      5.15401808
  H      4.95054676     -0.88585331      3.62094370
 Cl      2.57222441      2.74478589      3.01810904
 Cl      1.40616738      3.61459367     10.58172310
 Cl      8.20890665      3.31951303      6.31218683
 Cl      6.37302172      9.88891809      2.63174442
 Cl      7.64308868     -1.55377981      2.87558741
