62
Energy =    -96.25140636 au
  N      5.93895473     -3.04853583      8.29585470
  C      6.58656906     -2.55902073      9.34761510
  N      5.82206309     -2.69767724     10.42412573
  C      4.65424704     -3.29712621     10.04362387
  C      4.72524071     -3.51872257      8.70411739
  C      6.42953403     -3.10088897      6.94011860
  C      6.55162254     -4.54331371      6.46442838
  C      6.20016287     -2.28375349     11.74561687
  H      7.58588626     -2.13211965      9.40652121
  H      3.87151233     -3.51767632     10.73872217
  H      4.04074210     -4.00888060      8.01396038
  H      5.72053451     -2.57284326      6.29659678
  H      7.39431980     -2.58784407      6.91940289
  H      6.96158070     -4.56022104      5.45796640
  H      5.56311587     -5.00583471      6.44618275
  H      7.20793606     -5.11012564      7.12285418
  H      6.13557285     -3.12489359     12.43584404
  H      5.54728335     -1.48302634     12.09471036
  H      7.23523799     -1.92298670     11.69280424
  N      3.86683359      8.98120650      4.83981290
  C      4.10302222     10.25671867      5.17877608
  N      3.97189208     11.01738554      4.08967637
  C      3.53200682     10.23424501      3.06129298
  C      3.46379901      8.96419125      3.52440465
  C      3.82202596      7.85739011      5.74049589
  C      2.39123223      7.58297104      6.19291250
  C      4.07858366     12.44566996      4.03753475
  H      4.56903667     10.56300705      6.09164787
  H      3.36990783     10.66010682      2.08815540
  H      3.17637985      8.05648451      3.03678357
  H      4.24547901      6.98622491      5.22856473
  H      4.44193581      8.09750977      6.60710224
  H      2.37837113      6.81515339      6.96123536
  H      1.78006868      7.25878686      5.35469761
  H      1.97332586      8.50434933      6.59260263
  H      3.23517468     12.88552197      4.57436382
  H      4.06109041     12.74687107      2.98858394
  H      5.00733195     12.77270395      4.50574107
  N      6.40982074      9.70684690      0.46950233
  C      5.83094995     10.25818862     -0.59631449
  N      4.71555816      9.59060589     -0.87587073
  C      4.61887174      8.53981326     -0.01215899
  C      5.67503865      8.61380510      0.83428736
  C      7.58056677     10.21931540      1.12689540
  C      7.17623791     11.18011847      2.24266513
  C      3.84409718      9.91871629     -1.96202258
  H      6.11804501     11.18583731     -1.04290271
  H      3.81604338      7.83356609     -0.06364824
  H      5.96228328      7.98198401      1.64888304
  H      8.16105539      9.37823865      1.51773226
  H      8.17707468     10.73311438      0.37048399
  H      8.03873729     11.73733584      2.59768573
  H      6.73908085     10.63395866      3.07607202
  H      6.42929814     11.87288841      1.85945963
  H      3.44876290     10.92401659     -1.80387405
  H      3.02687839      9.20228929     -2.00846420
  H      4.41943835      9.89378274     -2.88984400
 Cl      2.12646755     10.96780497      6.52443132
 Cl      4.22560706     12.33754090      0.62670702
 Cl      3.16106363     -5.21827284      6.52588610
 Cl      9.18774168     -1.44556770     10.65767016
 Cl      7.28334869      9.29575179     -2.43499582
