#B3LYP/6-31+G(d) OPT FREQ

62, Energy =    -96.26720782 au

0 1
  N      3.96151219      5.69468157      3.69405841
  C      3.29930125      6.31181490      2.72161369
  N      4.17662566      6.74806240      1.82392674
  C      5.42777429      6.39132293      2.23014385
  C      5.29612757      5.73185130      3.41184598
  C      3.34621056      5.08174747      4.84651880
  C      3.74392821      3.61499833      4.95564547
  C      3.88974308      7.47054753      0.61772893
  H      2.21486767      6.45157570      2.72041848
  H      6.28574148      6.67113170      1.65186835
  H      6.03365950      5.29945498      4.06466431
  H      3.67622160      5.61503074      5.74316491
  H      2.26591025      5.20389552      4.73322784
  H      3.22319939      3.15409494      5.79026310
  H      4.81498197      3.53046731      5.12619574
  H      3.48313027      3.08040146      4.04495083
  H      3.55017835      6.78682164     -0.16179871
  H      4.80836163      7.96017495      0.28587970
  H      3.10939470      8.20584342      0.80333470
  N      9.86653400      4.88465080      3.32705005
  C     10.00143120      4.68738972      2.02289859
  N      9.41498806      5.68938238      1.37367870
  C      8.90262415      6.55518307      2.29125923
  C      9.18195266      6.04433029      3.52143897
  C     10.36168968      4.00309190      4.35174831
  C     11.53758322      4.63099062      5.09033846
  C      9.30816455      5.83975837     -0.05002096
  H     10.47050650      3.80200921      1.60409768
  H      8.38278058      7.44226385      1.98048234
  H      8.90501727      6.38017065      4.49837603
  H      9.53384666      3.80636793      5.04035228
  H     10.66766415      3.07741810      3.86025792
  H     11.89243734      3.94247186      5.85175718
  H     11.24106572      5.55978242      5.57379887
  H     12.35473929      4.83593774      4.40086213
  H     10.27433411      6.11046210     -0.47845903
  H      8.58423746      6.63486572     -0.25693309
  H      8.97500544      4.90430290     -0.49599079
  N      7.61911399      1.04469325      4.16852853
  C      7.08818824      1.11627840      5.38211268
  N      8.05158596      1.01745136      6.28675050
  C      9.23303483      0.85037377      5.62872364
  C      8.96679071      0.87269375      4.29770905
  C      6.92200754      1.20813953      2.92009172
  C      7.36142008      2.50802699      2.25341287
  C      7.81843246      0.96913612      7.69770188
  H      6.05288757      1.26825556      5.60417939
  H     10.16235841      0.73184955      6.14675963
  H      9.62240488      0.82148555      3.44859866
  H      7.14711542      0.35168238      2.27783068
  H      5.85206294      1.21800689      3.13686344
  H      6.73536133      2.72480054      1.39226747
  H      8.39614619      2.42408324      1.93076092
  H      7.27720706      3.32344020      2.96781344
  H      8.75979834      0.81613386      8.22117404
  H      7.13682928      0.13384223      7.88584589
  H      7.35786696      1.90263534      8.02376732
 Cl      7.16495635      8.39423916      0.07184083
 Cl     11.10177461      1.75368085      1.69346361
 Cl      6.16947193     -1.36983287      6.10775332
 Cl      0.22929221      6.57609801      3.27842343
 Cl      7.29273428      4.11628084      5.63012072

