#B3LYP/6-31+G(d) OPT FREQ

62, Energy =    -96.26386010 au

0 1
  N      7.91832765      0.50909853      3.33613236
  C      7.22929433      0.62355254      4.46885417
  N      6.17372886     -0.18161004      4.41253046
  C      6.19033857     -0.82296000      3.20893955
  C      7.28862465     -0.38870517      2.53219884
  C      9.13114559      1.20916657      2.98164951
  C     10.13187497      1.20440873      4.12835647
  C      5.19803234     -0.37011415      5.44710540
  H      7.48131091      1.26281538      5.30777482
  H      5.41925492     -1.50916551      2.92745471
  H      7.71595110     -0.65440840      1.57737595
  H      9.53438104      0.70399952      2.09403472
  H      8.87460685      2.23979043      2.71714361
  H     11.04286822      1.70472080      3.81182687
  H     10.37889315      0.18250572      4.40648012
  H      9.73578781      1.72209183      4.99888548
  H      5.24978498     -1.39260078      5.82412265
  H      4.18706251     -0.19498178      5.05290904
  H      5.40156406      0.32662506      6.25610340
  N      2.85962532      3.25018851      6.32472551
  C      3.42255306      4.07612839      7.20264052
  N      4.72279629      4.15041676      6.94062588
  C      4.99613903      3.35447759      5.86913808
  C      3.82115458      2.78943620      5.48018594
  C      1.46387426      2.89106437      6.26677753
  C      0.61393525      4.10559584      5.91475813
  C      5.70890983      4.90267931      7.66029358
  H      2.88905925      4.64454747      7.95376520
  H      6.00365085      3.22346280      5.52895474
  H      3.57429548      2.07566449      4.71395718
  H      1.37191975      2.09267662      5.52302752
  H      1.16308276      2.50585038      7.24462104
  H     -0.43342040      3.82085659      5.87442564
  H      0.90219246      4.50223913      4.94410573
  H      0.73933075      4.88087401      6.66831056
  H      5.92139585      5.83969305      7.14351180
  H      6.62578816      4.30645377      7.69928572
  H      5.34635260      5.12128384      8.66166118
  N      1.14212203      8.27929828      6.07928439
  C      0.58112309      8.48839224      7.26692514
  N     -0.62138558      7.92364899      7.28573600
  C     -0.86159635      7.39257508      6.05396394
  C      0.24321312      7.60930508      5.29861520
  C      2.48174644      8.65244002      5.71472396
  C      3.44078910      7.49683260      5.98919392
  C     -1.50323379      7.96389548      8.41132143
  H      1.06738162      8.92339083      8.11370590
  H     -1.78212322      6.90165417      5.81413500
  H      0.45717149      7.34570702      4.28369850
  H      2.49125284      8.93261535      4.65763220
  H      2.75013955      9.52697637      6.31046773
  H      4.47074239      7.82936184      5.89407595
  H      3.26685089      6.68065975      5.29118222
  H      3.26758716      7.12632989      6.99745791
  H     -1.02391128      7.46189702      9.25385761
  H     -2.43640489      7.46200866      8.16516166
  H     -1.69280013      9.00860659      8.66642436
 Cl      2.20470747      0.28669990      4.14348803
 Cl     -0.26276168     10.90194863      6.94902331
 Cl      1.59149516      6.22550665      8.75428275
 Cl      9.59434114     -0.71849009      0.25818673
 Cl      8.04187533      2.61044656      6.90639239

