#B3LYP/6-31+G(d) OPT FREQ

62, Energy =    -96.29278967 au

0 1
  N      4.89474718      3.36502493      4.66433226
  C      5.16948043      2.98352864      3.42272664
  N      6.00765405      1.95345999      3.46620295
  C      6.26736104      1.66712396      4.77317822
  C      5.56281941      2.55421430      5.52690789
  C      4.04924973      4.47471830      5.02304994
  C      2.62999196      4.00244411      5.31834360
  C      6.60630003      1.29671307      2.34083755
  H      4.85456076      3.54259029      2.54445443
  H      6.94871344      0.89103961      5.05217880
  H      5.53379903      2.72011836      6.58479179
  H      4.48750794      4.94508753      5.90800803
  H      4.04996403      5.16826733      4.17958384
  H      2.01554865      4.85358087      5.59605083
  H      2.62707690      3.28993569      6.14077442
  H      2.19518138      3.53276880      4.43827853
  H      6.24823978      0.26954641      2.26128491
  H      7.69236826      1.28272041      2.48510679
  H      6.35791810      1.84217852      1.43470529
  N      9.56246144      4.34847605      6.23390460
  C     10.39454621      4.33566425      5.19854249
  N     10.71748479      5.58560120      4.88716108
  C     10.07334648      6.42137403      5.74716276
  C      9.35014460      5.64145965      6.59730197
  C      8.97537925      3.18651952      6.84937183
  C      9.83264484      2.69616814      8.01151074
  C     11.55651399      6.01349456      3.80800139
  H     10.66097040      3.44642173      4.65218950
  H     10.13436718      7.48432061      5.63760718
  H      8.66480325      5.89440607      7.38137391
  H      7.98002762      3.47206496      7.20260514
  H      8.89536851      2.41627230      6.08024952
  H      9.36498016      1.82692410      8.46425783
  H      9.92713478      3.47150882      8.76890099
  H     10.82580358      2.41598134      7.66475535
  H     12.49157059      6.42420792      4.19217694
  H     11.01745494      6.80591743      3.26823589
  H     11.76605024      5.17086449      3.15433998
  N      7.76018128      5.36768432      2.27866728
  C      7.17175165      6.52068823      2.56370612
  N      6.83049959      6.53298186      3.84337091
  C      7.21904721      5.35416824      4.40093259
  C      7.79987832      4.61697767      3.41927233
  C      8.15578495      4.92613376      0.96639427
  C      9.56618050      4.35537901      0.96074095
  C      6.24553674      7.63134782      4.55270020
  H      6.98631869      7.31143409      1.86697375
  H      7.02081275      5.13679030      5.43422153
  H      8.25103916      3.64420670      3.45297597
  H      7.42969410      4.17854689      0.63016178
  H      8.09009184      5.78695811      0.29828163
  H      9.81550773      4.00850783     -0.03887990
  H      9.65372734      3.51845645      1.64882968
  H     10.27186857      5.12985309      1.24873419
  H      6.94008979      8.47367019      4.52830046
  H      6.07035408      7.32645797      5.58222963
  H      5.30546534      7.92274937      4.08368168
 Cl      6.20749321      4.97661712      7.63834557
 Cl    -32.05285676     29.95812484     30.66089030
 Cl      9.62246035      1.64721349      3.66288641
 Cl      9.36239436      8.24710523      3.10575061
 Cl      4.69138805      5.36387773      1.51548013

