#B3LYP/6-31+G(d) OPT FREQ

62, Energy =    -96.26293811 au

0 1
  N      9.64843078      5.69090086     10.27913000
  C      9.52905561      4.50171437     10.86968625
  N      8.88552555      3.67351850     10.04990647
  C      8.54299487      4.36893930      8.92395984
  C      9.01404644      5.63243180      9.06612451
  C     10.16073862      6.88113516     10.91009946
  C     10.90442808      7.76993977      9.92490729
  C      8.43542692      2.35291953     10.38130004
  H      9.98202272      4.22396453     11.79731305
  H      7.97216537      3.90020923      8.14533033
  H      8.91682767      6.49776717      8.43563549
  H      9.31447700      7.42481445     11.34282449
  H     10.81080990      6.56334824     11.73106506
  H     11.35087251      8.60783798     10.45465232
  H     10.21681562      8.16234773      9.17832557
  H     11.69175698      7.21169440      9.42138135
  H      7.75249454      2.01728927      9.59859052
  H      7.90974384      2.40058161     11.33644339
  H      9.27587804      1.66092084     10.46129465
  N      5.53546217      6.08746578      6.17378764
  C      5.96016463      6.21039926      7.42831123
  N      5.32772361      5.31636644      8.18257308
  C      4.48192213      4.60646759      7.38419346
  C      4.61330241      5.09040169      6.12044437
  C      5.99301576      6.84425615      5.03371609
  C      7.49971069      6.69550011      4.86350478
  C      5.51449767      5.05930373      9.58166947
  H      6.69295316      6.93325712      7.75954521
  H      3.88850439      3.80291862      7.76536601
  H      4.12895009      4.83871207      5.19338002
  H      5.44306924      6.47049164      4.16420643
  H      5.74682188      7.89857731      5.18883578
  H      7.80472290      7.13330469      3.91697989
  H      7.77566273      5.64408240      4.87484757
  H      8.01887119      7.20860579      5.67011258
  H      5.80958946      4.01628340      9.70671832
  H      4.58373491      5.22764314     10.12520001
  H      6.29006050      5.70165319      9.98925136
  N      5.15881935      2.35991244      4.00387019
  C      4.90674057      2.70633589      2.74737322
  N      5.94989911      3.35660892      2.25895310
  C      6.89998518      3.42955441      3.23093399
  C      6.40586474      2.80034212      4.32947692
  C      4.31785892      1.54568303      4.84160524
  C      4.49294774      0.07497938      4.46922044
  C      6.01186295      3.86877811      0.92532822
  H      4.00673104      2.50312079      2.20663289
  H      7.84187161      3.91202062      3.06727255
  H      6.80952850      2.64447169      5.31148662
  H      4.61341206      1.72050944      5.87882395
  H      3.28173092      1.86120394      4.69678298
  H      3.71501055     -0.52858460      4.92994858
  H      5.46148129     -0.28058861      4.81200275
  H      4.44989503     -0.04076988      3.38766812
  H      5.80836978      3.04095542      0.24157105
  H      6.99796600      4.28692351      0.73475967
  H      5.24783624      4.64029209      0.81298942
 Cl      8.27173442      8.58540307      7.76170175
 Cl      5.34208006      0.55422246      0.89325193
 Cl      7.73530118      4.93329954     12.70675095
 Cl      3.65297012      5.33789810      2.96617488
 Cl      6.30904495      2.16661798      7.73304573

