62
Energy =    -96.25807898 au
  N      9.08846642      5.10894156      7.11158471
  C      9.46465383      6.38116557      7.02746542
  N     10.59664611      6.54011968      7.70028094
  C     10.95989051      5.34131686      8.23249563
  C     10.01156034      4.43924196      7.86236357
  C      7.90934284      4.56642533      6.47533674
  C      8.24786073      3.37184054      5.59268909
  C     11.34402711      7.75396949      7.85727721
  H      8.91715177      7.10815473      6.42805562
  H     11.89809705      5.23656145      8.74782921
  H      9.93193942      3.39491156      8.08082159
  H      7.19087191      4.27117193      7.24673791
  H      7.48251344      5.37917676      5.87437604
  H      7.35624758      3.05879497      5.05701578
  H      8.61097608      2.53005754      6.17794249
  H      9.00659732      3.64281907      4.86392394
  H     12.40069747      7.47741649      7.97233076
  H     11.01772551      8.28484245      8.75342707
  H     11.19571003      8.39207986      6.98945209
  N     11.27330149      7.41728760      3.72809747
  C     12.40518523      8.07948949      3.97413723
  N     13.11228855      7.40456178      4.88217348
  C     12.46364642      6.23145687      5.14382723
  C     11.31320315      6.24142948      4.42556849
  C     10.24095931      7.79383094      2.79567903
  C     10.38696790      7.00158695      1.50092788
  C     14.40851596      7.75248586      5.38266800
  H     12.61461058      9.07326217      3.63860780
  H     12.86839258      5.53171122      5.84743919
  H     10.51494874      5.53341391      4.35542387
  H      9.27014263      7.61819496      3.27214689
  H     10.35137810      8.86005151      2.59060768
  H      9.70449476      7.38570798      0.74864239
  H     10.16925509      5.94991651      1.66732620
  H     11.40987384      7.09657843      1.14350595
  H     15.16563997      7.47823980      4.64598222
  H     14.57668165      7.21450000      6.31757435
  H     14.46281227      8.82651911      5.55710917
  N     -3.18820953     -0.61450741      7.77369516
  C     -2.11876895     -0.55181892      8.55818484
  N     -1.58143796      0.65715112      8.45408460
  C     -2.33666261      1.38644037      7.57884020
  C     -3.34907197      0.58645915      7.14884496
  C     -4.05309864     -1.75597775      7.60559767
  C     -5.46727175     -1.44103122      8.07615792
  C     -0.40650440      1.07958471      9.16451916
  H     -1.69234904     -1.31527290      9.20850753
  H     -2.10337714      2.39959536      7.32375599
  H     -4.18631676      0.77006820      6.47931814
  H     -4.08451157     -2.00873008      6.54282170
  H     -3.61540057     -2.58353249      8.16889479
  H     -6.08455310     -2.33154682      7.99005518
  H     -5.89188384     -0.66354467      7.44111990
  H     -5.46492048     -1.11106597      9.11308642
  H     -0.63352909      1.94199920      9.79219563
  H      0.38516799      1.34637966      8.46357753
  H     -0.08082620      0.24012402      9.78919526
 Cl     -6.07943031      0.73479343      5.50271071
 Cl     14.07748921      6.03040858      8.32827918
 Cl      7.53494519      7.54234537      4.91556417
 Cl     13.84651311      7.66128854      1.91729984
 Cl     -0.24376132     -1.92314541     10.61948529
