62
Energy =    -96.27346513 au
  N      8.03509312      8.44458160      8.72049022
  C      7.46487000      8.71258763      7.54685375
  N      6.17104084      8.95392357      7.73510600
  C      5.90648691      8.84060347      9.06498552
  C      7.07812871      8.52440890      9.68452272
  C      9.42400817      8.14636528      8.95097178
  C     10.16395471      9.36228946      9.50002833
  C      5.22997343      9.26092265      6.69813873
  H      7.91742402      8.64938023      6.57094896
  H      4.91675738      8.96855476      9.45190022
  H      7.29108163      8.28415647     10.70541351
  H      9.45445283      7.32192228      9.67699716
  H      9.86389150      7.82992799      8.00489717
  H     11.21018604      9.10982304      9.64959953
  H      9.74307655      9.66091373     10.45660905
  H     10.10251566     10.20226608      8.80814089
  H      5.09685816     10.34027380      6.61312715
  H      4.26523105      8.79867808      6.92728617
  H      5.62047484      8.86632156      5.76271574
  N      7.13232046      5.15509464      7.48107586
  C      6.58150939      5.28233240      6.27638149
  N      5.34161848      5.73478698      6.41411079
  C      5.08776033      5.90240851      7.73999576
  C      6.21285339      5.53738111      8.41314368
  C      8.46328151      4.69466558      7.80349678
  C      9.47789290      5.09785757      6.74020848
  C      4.44879171      6.07262325      5.34219694
  H      7.07420104      5.11884573      5.33831585
  H      4.14660138      6.29977737      8.07263161
  H      6.46097823      5.54855354      9.45823401
  H      8.70717095      5.11897856      8.78642686
  H      8.44280160      3.60500244      7.91300259
  H     10.47789971      5.08766492      7.16725235
  H      9.26138508      6.09732524      6.36930683
  H      9.46082627      4.41502310      5.89367328
  H      3.63357328      6.66972792      5.75584866
  H      4.04696382      5.17162219      4.87595492
  H      5.00690094      6.64997694      4.60526445
  N      1.92207504      8.06856451      3.46202228
  C      2.50304997      7.66599532      2.32676868
  N      3.75717066      8.13401510      2.29934516
  C      3.92984923      8.94739765      3.38887092
  C      2.78977306      8.89944602      4.11791759
  C      0.57788478      7.74648495      3.86349150
  C      0.54352579      6.43296906      4.64476032
  C      4.64983152      8.00655758      1.18632060
  H      2.13041059      6.89858202      1.68118007
  H      4.84940947      9.46864285      3.55472451
  H      2.53867244      9.33437697      5.06312521
  H      0.20923445      8.55867676      4.50011861
  H     -0.03496294      7.69810016      2.95477498
  H     -0.48545869      6.16216839      4.86676566
  H      1.08071213      6.55377935      5.58704909
  H      1.00652420      5.62820321      4.07063859
  H      4.81688615      6.95289516      0.95696043
  H      5.60114460      8.47660974      1.43128814
  H      4.19868781      8.49552261      0.31740417
 Cl     19.92266075    -21.52807761    -19.98909438
 Cl      1.43426337      9.07049281      0.60802246
 Cl      7.41188162      7.59846371      4.57875500
 Cl      8.39806186      5.81989020     10.95241454
 Cl      2.34497805      7.76319921      7.40460938
