#B3LYP/6-31+G(d) OPT FREQ

62, Energy =    -96.26553124 au

0 1
  N      8.65239876      3.87880930      9.77395153
  C      8.92593495      4.57559099      8.66799627
  N      9.06290384      5.85906836      8.99080967
  C      8.87835325      5.99090144     10.33262886
  C      8.61985830      4.75011207     10.82592604
  C      8.47134068      2.44902107      9.81889076
  C      9.63679016      1.76869988     10.52876758
  C      9.33453628      6.95046834      8.10422408
  H      8.96840653      4.11971106      7.68683910
  H      8.85888943      6.96002629     10.79151004
  H      8.40608087      4.43415160     11.82564825
  H      7.53191278      2.22448994     10.33159690
  H      8.41253755      2.10488479      8.78144297
  H      9.47830440      0.69445400     10.53363303
  H      9.72916777      2.11404143     11.55700281
  H     10.56533681      1.97676857     10.00301581
  H     10.37644106      7.26142880      8.19474100
  H      8.68731623      7.78528431      8.40956281
  H      9.12960456      6.65179245      7.08013115
  N      5.32938771      6.25728370      7.80257276
  C      5.59951121      5.22329658      7.00419714
  N      6.34705681      5.64296107      5.98615554
  C      6.50115721      6.99711672      6.10863876
  C      5.86858584      7.37971668      7.24639790
  C      4.50082618      6.20286520      8.97849249
  C      5.32668922      5.86608227     10.21327655
  C      6.74522362      4.81735508      4.88291437
  H      5.39203110      4.19692026      7.21688512
  H      7.03389793      7.57691103      5.38353968
  H      5.80882167      8.33275584      7.73010505
  H      4.03683698      7.18222793      9.10632708
  H      3.71964684      5.46053133      8.79402386
  H      4.68536422      5.83117108     11.08918722
  H      6.08052224      6.63847334     10.35857991
  H      5.81627286      4.90151446     10.09578528
  H      7.31589938      5.40887749      4.17102549
  H      5.84919686      4.41984161      4.40278940
  H      7.35296291      3.98290776      5.24526762
  N      4.65888591      1.68735688      6.44939381
  C      3.34630132      1.88424005      6.35060238
  N      3.01274816      1.94332928      5.06728530
  C      4.13417681      1.72928353      4.32483222
  C      5.16717016      1.56254750      5.18835339
  C      5.40912515      1.47893721      7.66145134
  C      5.42438674     -0.00475336      8.02073471
  C      1.67664991      2.14544050      4.59797277
  H      2.68592746      2.09501411      7.16430196
  H      4.11331723      1.71699835      3.25438871
  H      6.21194409      1.39812843      5.02277238
  H      6.42546921      1.84681950      7.48924305
  H      4.93191170      2.05279244      8.46056127
  H      5.81044275     -0.14797184      9.02654582
  H      6.05110700     -0.55249336      7.32209584
  H      4.41161708     -0.39904145      7.95910176
  H      1.03047235      1.41630599      5.09091226
  H      1.64080290      2.00875044      3.51949231
  H      1.35724680      3.15760360      4.85329981
 Cl     -8.56716403     22.59893291    -24.94186456
 Cl      7.36689785      8.72267285      9.92777114
 Cl      2.19496248     -0.43165154      6.79804021
 Cl      8.57468242      2.40641700      6.41820797
 Cl      3.34366607      4.92633561      5.85282466

