62
Energy =    -95.80865943 au
  N     10.20582597      2.54028799      5.28572703
  C      9.80113801      2.32247851      6.54267612
  N      9.65968059      3.50697644      7.14588399
  C      9.95185682      4.49863484      6.25115648
  C     10.29585265      3.88858047      5.07439720
  C     10.42164409      1.50223688      4.27118339
  C      9.46939206      1.66806571      3.10170020
  C      9.08906700      3.71733706      8.47145205
  H      9.55819238      1.36904225      6.97574433
  H      9.86937697      5.53956524      6.50460516
  H     10.56097631      4.30709256      4.12124407
  H     11.46259441      1.56555239      3.95541392
  H     10.27154549      0.54811859      4.77103738
  H      9.65818661      0.87559279      2.37882986
  H      9.60748546      2.62803769      2.60867170
  H      8.43814251      1.60742033      3.43519162
  H      8.07774428      4.09721573      8.35448098
  H      9.71086743      4.42506530      9.01294021
  H      9.04996906      2.76603872      8.98983129
  N      7.99389894      2.56157502     -0.37939435
  C      8.57752601      1.48329233      0.15709444
  N      9.85133017      1.45458114     -0.24726174
  C     10.09276052      2.54762520     -1.03228192
  C      8.91948886      3.24891659     -1.11526292
  C      6.61123343      2.98845808     -0.13560489
  C      6.56470640      4.34246244      0.54738961
  C     10.87006699      0.52876158      0.23441821
  H      8.12816643      0.79729141      0.85214125
  H     11.06466787      2.75398208     -1.44141296
  H      8.69283910      4.17696838     -1.60647936
  H      6.09993778      3.00459631     -1.09769278
  H      6.15623600      2.21799467      0.48252843
  H      5.52409601      4.61636170      0.71563776
  H      7.03228987      5.11251266     -0.06259517
  H      7.08265688      4.30912916      1.50079730
  H     11.51362645      1.05774884      0.93210538
  H     11.43755722      0.15841197     -0.61500541
  H     10.38216309     -0.28738012      0.75506850
  N      6.28531873      1.39387291      4.62894646
  C      5.57545541      2.47050491      4.27104708
  N      6.26857644      3.56009271      4.61642651
  C      7.45313264      3.17305632      5.17884990
  C      7.46534595      1.80372700      5.18591423
  C      5.90163252      0.00058616      4.37406753
  C      6.89825859     -0.68715987      3.45989253
  C      5.91747521      4.93136676      4.26526053
  H      4.64503505      2.46785697      3.73260275
  H      8.19250856      3.88358149      5.49986782
  H      8.22118127      1.11288260      5.51055371
  H      5.82816278     -0.49974659      5.33924427
  H      4.91084629      0.03163510      3.92673775
  H      6.57224599     -1.71263339      3.29161274
  H      7.89361481     -0.70672248      3.89872778
  H      6.96214401     -0.17287178      2.50606003
  H      6.56500935      5.25574194      3.45517167
  H      6.04419600      5.56145210      5.14142191
  H      4.88890452      4.95191441      3.92345014
 Cl      0.87545133      9.84352334      0.03793485
 Cl      7.00819685      1.88326755      7.13134849
 Cl      3.23306812      8.91410477      2.21745721
 Cl      6.35716781      9.79105765      2.01334262
 Cl      0.36185779      9.82095551      7.14105812
