62
Energy =    -96.26265298 au
  N     10.29642385      3.47331386      2.39866689
  C     11.34420120      3.60182258      3.20360376
  N     11.08677365      2.99932685      4.35726276
  C      9.84348563      2.44853449      4.28097689
  C      9.34573149      2.74677745      3.05434064
  C     10.22160491      3.97644370      1.05381428
  C     10.77889222      2.94805690      0.07380374
  C     12.02296671      2.89022519      5.43389454
  H     12.23662531      4.14548293      2.97802777
  H      9.41455453      1.89564110      5.09152226
  H      8.40050293      2.51293428      2.60914437
  H      9.17786450      4.21649706      0.83280762
  H     10.80507802      4.89868395      1.01855809
  H     10.94566342      3.39942842     -0.90054633
  H     10.09261995      2.11125190     -0.03517817
  H     11.72110632      2.56429165      0.46217793
  H     12.91911320      2.39407970      5.05270327
  H     11.58679588      2.30602642      6.24076687
  H     12.28137669      3.88607404      5.79619856
  N      6.88899304      5.49090698      5.97572782
  C      7.35407391      6.29426993      5.02308522
  N      6.42761471      7.20924379      4.75345282
  C      5.34498623      6.98290750      5.54841695
  C      5.63668543      5.90091155      6.32078306
  C      7.57982332      4.36293575      6.55459582
  C      8.96208931      4.76081627      7.05277284
  C      6.52725785      8.26820790      3.79005284
  H      8.33515387      6.23195742      4.56675388
  H      4.48342652      7.62178201      5.48243267
  H      5.08663853      5.37753322      7.08387743
  H      6.94947409      3.99175236      7.37061019
  H      7.67043845      3.58457836      5.79040381
  H      9.44530086      3.90059966      7.50828527
  H      8.87849283      5.54407915      7.80237320
  H      9.58039285      5.12212494      6.23339449
  H      7.38967576      8.89591256      4.01148087
  H      5.60834573      8.86006643      3.83973776
  H      6.64484275      7.85666268      2.78788259
  N      1.70688601      7.13887228      6.67268226
  C      1.57993658      6.10811501      7.50585178
  N      2.29180333      6.34241752      8.60041086
  C      2.86472795      7.57255866      8.47638759
  C      2.49206193      8.07714671      7.27105493
  C      1.04091676      7.30993442      5.40671089
  C     -0.33380377      7.93678139      5.62307162
  C      2.41069988      5.44959823      9.71423403
  H      1.03473558      5.20923609      7.30808391
  H      3.48640811      7.98821632      9.24192511
  H      2.74654633      8.98853345      6.76546854
  H      1.67478148      7.95173272      4.78580164
  H      0.94030347      6.32717676      4.93902223
  H     -0.92260017      7.87797410      4.71159886
  H     -0.22875061      8.98053296      5.90738788
  H     -0.84983153      7.40941183      6.42385940
  H      1.44612389      4.97317235      9.87848547
  H      2.69791163      6.01161450     10.60008654
  H      3.17745098      4.69469244      9.50320182
 Cl      5.02814843      3.63485896      8.65249168
 Cl     -0.87571058      6.27340983      8.68384164
 Cl     10.42465732      6.10068101      3.98892863
 Cl     13.04372502      1.66260438      2.40592862
 Cl      3.47704759      9.53858850      4.38863042
