#B3LYP/6-31+G(d) OPT FREQ

62, Energy =    -96.27388588 au

0 1
  N      0.59073186      2.74594073      7.20436590
  C      0.82577348      2.08439552      8.33268676
  N     -0.30206358      2.00453536      9.03012826
  C     -1.29038064      2.63008152      8.33693157
  C     -0.73051958      3.09496203      7.18802537
  C      1.55754632      3.02159326      6.16559655
  C      1.20855666      2.29568065      4.87497298
  C     -0.48811679      1.38401206     10.31154022
  H      1.79186549      1.69014639      8.61658070
  H     -2.29943682      2.63308823      8.73393268
  H     -1.16529423      3.64312136      6.37892770
  H      1.58068213      4.09993642      5.98804295
  H      2.53578200      2.70222514      6.52813737
  H      1.90905332      2.59805309      4.09893713
  H      0.20408549      2.54936102      4.54573999
  H      1.27261168      1.21905068      5.01003689
  H     -1.57034369      1.31848208     10.49146257
  H     -0.03125254      1.99109789     11.09399695
  H     -0.03271697      0.39576490     10.32105859
  N      6.78673884      3.50767292      6.91522616
  C      7.26276153      4.20427625      5.88613580
  N      6.33016789      4.27766310      4.94257744
  C      5.23558652      3.58251706      5.36768565
  C      5.52096794      3.09350911      6.60075566
  C      7.52662212      3.13441953      8.09470339
  C      6.70749634      3.33806717      9.36112333
  C      6.45283290      4.89647956      3.65394592
  H      8.21763921      4.68606625      5.85628810
  H      4.37861937      3.47837694      4.72638246
  H      4.93456223      2.49248500      7.27253917
  H      7.81773945      2.08386781      7.99778302
  H      8.44083605      3.73290770      8.11495353
  H      7.31237507      3.09328315     10.22992091
  H      5.83163771      2.69463647      9.36183182
  H      6.37995065      4.37214208      9.44301038
  H      5.58681933      4.60265343      3.05755046
  H      7.36834088      4.55334190      3.17368781
  H      6.48116151      5.98307546      3.74801438
  N      5.79624841      0.85188312      3.95418204
  C      6.55464400      0.41026570      4.95355214
  N      5.76473419     -0.04643542      5.92524788
  C      4.46918877      0.09969613      5.52480449
  C      4.49133953      0.66047371      4.28533368
  C      6.28276109      1.43138195      2.72949174
  C      6.49477000      0.35792482      1.66757483
  C      6.18898231     -0.57402651      7.18889246
  H      7.62199197      0.54408434      5.00110568
  H      3.65552804     -0.16456938      6.16776421
  H      3.70439577      0.99488262      3.63984276
  H      5.53410722      2.15726125      2.39609023
  H      7.22610698      1.93116240      2.95905544
  H      6.83389431      0.82332286      0.74724112
  H      5.56413608     -0.16768326      1.46575264
  H      7.24529260     -0.36036003      1.99140729
  H      6.05271914     -1.65716236      7.21806830
  H      5.57738804     -0.12167751      7.97723206
  H      7.23908901     -0.33774804      7.34508024
 Cl      3.54622514      3.39447110      2.54756979
 Cl      3.88904502      1.15092249      8.79763927
 Cl      8.95766352      2.38216209      4.87743056
 Cl     -3.73426081      1.81431739     10.17009995
 Cl     30.28752500     23.72012143     31.63100806

