#B3LYP/6-31+G(d) OPT FREQ

62, Energy =    -96.26036413 au

0 1
  N      9.30759262      6.96998080      1.81141228
  C      8.26149803      6.16584308      1.97514642
  N      7.89487003      5.67884054      0.79301488
  C      8.72003760      6.18812410     -0.15667042
  C      9.60507982      7.00245681      0.48164104
  C     10.02731432      7.71769668      2.81382216
  C      9.67420441      7.29228441      4.22764201
  C      6.81337728      4.76837052      0.55293064
  H      7.73810378      5.96917303      2.88961322
  H      8.56215503      5.96870327     -1.19568657
  H     10.39411508      7.61544859      0.09949778
  H     11.09594948      7.57001410      2.63180115
  H      9.81261373      8.79208621      2.64657090
  H     10.25345233      7.88635591      4.92878209
  H      9.90454915      6.23962897      4.39067570
  H      8.62150939      7.45914854      4.43652461
  H      7.14471466      3.73856361      0.69410673
  H      6.48180174      4.90521178     -0.48087009
  H      6.00998536      4.98799261      1.25330914
  N      5.91156460      9.43027577      1.52839625
  C      4.85633204      8.65664507      1.29713632
  N      5.07650013      7.93664897      0.20359587
  C      6.31534395      8.24711742     -0.26985389
  C      6.84444719      9.18119648      0.56609196
  C      6.07357274     10.35120666      2.62745164
  C      6.70964084      9.65676173      3.82550155
  C      4.18932554      6.97002441     -0.37782055
  H      3.97126994      8.61520631      1.89934891
  H      6.69553706      7.75798264     -1.14831001
  H      7.80222734      9.67519140      0.59976970
  H      6.73661787     11.15110635      2.29316023
  H      5.09045604     10.75570790      2.88267503
  H      6.59113271     10.26704276      4.71595534
  H      7.76890361      9.53219358      3.62552833
  H      6.24591363      8.68795788      3.99316155
  H      4.73157887      6.45077206     -1.17364022
  H      3.30904580      7.46094393     -0.79489537
  H      3.87767778      6.26120427      0.38812597
  N      1.64191468      5.14692880      5.58210750
  C      2.55900291      5.13383514      4.61624237
  N      2.29146246      4.12591088      3.78131152
  C      1.16747289      3.49012850      4.23649818
  C      0.76030668      4.13247733      5.36286573
  C      1.53216839      6.09374766      6.66384412
  C      0.39927070      7.07994603      6.39779896
  C      3.07054139      3.78439127      2.62495774
  H      3.39573077      5.79971392      4.49491796
  H      0.75178131      2.64258617      3.73224407
  H     -0.06568520      3.98361679      6.05696828
  H      1.28155308      5.53727446      7.57144588
  H      2.49481396      6.60010273      6.77235897
  H      0.42056511      7.86843932      7.14440055
  H     -0.54446516      6.54597185      6.48922242
  H      0.48555477      7.52342186      5.40703135
  H      2.45699880      3.82918814      1.72417789
  H      3.47849010      2.77790899      2.72418465
  H      3.89047492      4.50068676      2.54741015
 Cl     27.14512020    -21.17149320     17.83703404
 Cl      5.18666324      6.39205204      3.11169531
 Cl      9.43249171     10.71866574      1.79182678
 Cl      6.47396859      5.81087797     -2.55621783
 Cl     -1.23849618      4.40553849      7.75397438

