62
Energy =    -96.23705640 au
  N     10.52571188      9.00337481      4.00559298
  C     10.51395778      8.17569208      5.06586203
  N      9.38219000      8.39500265      5.76895359
  C      8.67963535      9.38125365      5.13949938
  C      9.38978002      9.75366837      4.04535236
  C     11.50419104      9.06915534      2.94756624
  C     12.78467357      8.33254377      3.29237482
  C      9.02079194      7.68043894      6.95653306
  H     11.16601925      7.35363734      5.26924782
  H      7.74069758      9.73909111      5.50819068
  H      9.15998089     10.46292273      3.27718281
  H     11.03968445      8.65613433      2.04318258
  H     11.71593575     10.12554501      2.75349550
  H     13.47954185      8.41793849      2.46289613
  H     12.59478970      7.28058313      3.47122963
  H     13.24808033      8.75485688      4.18054308
  H      9.50656024      6.70155975      6.91920529
  H      7.94041071      7.55948284      7.00530564
  H      9.35783491      8.21095382      7.84805584
  N      7.90609789      4.53225210      4.76312094
  C      8.94631181      4.25594446      3.98918122
  N      9.24181125      5.31428947      3.25270340
  C      8.37722505      6.31157508      3.57080448
  C      7.53144813      5.81729747      4.51250994
  C      7.24864074      3.62362574      5.66965536
  C      8.25408251      2.78838967      6.45036264
  C     10.32219563      5.41624426      2.31741372
  H      9.45801624      3.31756526      3.94689844
  H      8.42565320      7.26551367      3.07935835
  H      6.69802316      6.27097416      5.00790371
  H      6.64570792      4.22643446      6.35218132
  H      6.57749542      2.98374147      5.08739482
  H      7.78370801      2.36555798      7.33376435
  H      9.08817399      3.41553083      6.75475830
  H      8.64109964      1.97570510      5.84482239
  H     10.20649776      6.34697805      1.76189304
  H     10.29749584      4.56987659      1.63188577
  H     11.26767167      5.41009101      2.86103533
  N      7.06131558      5.77458890     -0.67840605
  C      6.73313061      6.09566236      0.56603594
  N      5.40951589      6.20602320      0.65603773
  C      4.87433724      5.86420959     -0.55150594
  C      5.90882678      5.59714819     -1.38909262
  C      8.40971485      5.56707947     -1.14129352
  C      8.79116522      4.09637623     -1.01021580
  C      4.71004340      6.43464618      1.88428359
  H      7.43524544      6.37752338      1.32484987
  H      3.81754588      5.83689935     -0.72052314
  H      5.91046112      5.30741956     -2.41927679
  H      8.47683317      5.90044986     -2.18008614
  H      9.05341736      6.19772355     -0.52335150
  H      9.86231459      3.97169300     -1.12578220
  H      8.28639166      3.49574312     -1.76432178
  H      8.48710782      3.73862378     -0.02922104
  H      4.90878463      5.58560419      2.54420333
  H      3.64273948      6.51984775      1.69315473
  H      5.08003855      7.34472415      2.35653888
 Cl      8.95694762      8.29205298      0.97532144
 Cl      6.77524776      3.83743118      1.94172739
 Cl     -9.25402904     19.29324008     -3.95902420
 Cl     10.89048647      5.12763058      5.88380967
 Cl      0.96497433    -25.28438060     26.57305641
