#B3LYP/6-31+G(d) OPT FREQ

62, Energy =    -96.26789722 au

0 1
  N      2.24618446      2.08676836      7.43766472
  C      1.96956608      1.25205092      8.43380240
  N      2.05243583      1.90437253      9.58758913
  C      2.38812103      3.19598390      9.32174651
  C      2.50802006      3.31029886      7.96966307
  C      2.25451521      1.77172936      6.02961363
  C      1.00875899      2.31316818      5.33603225
  C      1.82024701      1.32751915     10.87973500
  H      1.81503153      0.18509856      8.36173527
  H      2.54137333      3.91065985     10.10356336
  H      2.79846651      4.14078149      7.36135920
  H      3.16237597      2.21798290      5.61027776
  H      2.30420057      0.68504783      5.93416946
  H      1.04577837      2.08676003      4.27666891
  H      0.94164501      3.39253942      5.43922254
  H      0.10989287      1.86684880      5.75421436
  H      0.81821531      1.57772463     11.23124960
  H      2.55136269      1.71243289     11.60215538
  H      1.91018875      0.24644717     10.79108436
  N      5.01791657      0.06487145     10.33978973
  C      5.12089788     -0.56570207      9.17576729
  N      5.29141135      0.33454233      8.21064248
  C      5.30322345      1.57420820      8.77972893
  C      5.13275823      1.40301292     10.11814075
  C      4.78379102     -0.55785755     11.61692348
  C      6.04491971     -1.24285366     12.13141155
  C      5.40440739      0.07254476      6.80355670
  H      5.03869710     -1.62089528      9.02531453
  H      5.41023119      2.45498139      8.17602166
  H      5.04127778      2.10007253     10.93394884
  H      4.47127067      0.23175825     12.30816080
  H      3.97827991     -1.28446273     11.48471380
  H      5.83353581     -1.73075639     13.07765125
  H      6.83374222     -0.50971253     12.28981420
  H      6.39655041     -1.99295785     11.42387010
  H      6.36892524     -0.38211057      6.57305455
  H      5.31983369      1.02275999      6.26931225
  H      4.60909023     -0.60403262      6.49467567
  N      2.46904159      5.22889903      1.14967212
  C      3.79176971      5.35524805      1.17493458
  N      4.23943974      4.86175476      2.32689077
  C      3.17334513      4.41623165      3.05200543
  C      2.05698395      4.64651885      2.30955210
  C      1.58886239      5.65492407      0.08627234
  C      2.06987899      5.14483434     -1.26556528
  C      5.61197984      4.81094636      2.74491733
  H      4.41510770      5.77189567      0.37993282
  H      3.30940729      3.98332128      4.02137717
  H      1.00779782      4.44796749      2.47306769
  H      0.58922909      5.27937713      0.33487691
  H      1.56586590      6.74923792      0.07571251
  H      1.39941376      5.49738894     -2.04536519
  H      2.07721166      4.05780880     -1.27880545
  H      3.07322128      5.50993523     -1.47950842
  H      6.21386294      4.31502788      1.98489895
  H      5.67426928      4.26236375      3.68548359
  H      5.99919042      5.82061194      2.88872304
 Cl      5.16971157      3.31175883      5.87904699
 Cl     -1.12886894      4.38854403      1.79226013
 Cl      4.09323725      2.48236150     13.01774598
 Cl      2.53066932     -1.76848294      9.14715731
 Cl      5.49326797      6.44869425     -1.27187477

