62
Energy =    -96.27032657 au
  N      5.78535343      7.08338095      4.34492239
  C      5.15461524      8.20038490      3.99149984
  N      5.59110367      9.19211172      4.75847929
  C      6.52018358      8.69977855      5.62414850
  C      6.64406613      7.37080022      5.36145355
  C      5.57619657      5.77810889      3.76603378
  C      5.92171619      5.78313486      2.28229050
  C      5.15792626     10.55830251      4.71877824
  H      4.45645374      8.29583614      3.15691058
  H      6.95118640      9.32089098      6.38291100
  H      7.23556218      6.60296813      5.82291576
  H      6.19107114      5.07164827      4.33009182
  H      4.52389192      5.50914175      3.89406563
  H      5.76436910      4.79183224      1.86594634
  H      6.96294832      6.06263373      2.13373138
  H      5.28452099      6.49114097      1.75459159
  H      5.08443581     10.91761641      5.75089672
  H      4.19859720     10.61871914      4.21100477
  H      5.88497727     11.16935238      4.18090566
  N      1.98547900      3.70122898      9.34972960
  C      3.11167701      3.63292073     10.05227992
  N      4.13660426      3.50498003      9.21901291
  C      3.64916051      3.42961431      7.94755271
  C      2.30145407      3.55704162      8.02914496
  C      0.66772021      3.84459567      9.90366800
  C      0.25115244      5.31329201      9.94464688
  C      5.51712744      3.38632547      9.58576429
  H      3.18747824      3.76498429     11.11026094
  H      4.29934448      3.30267312      7.10670107
  H      1.55320867      3.54739163      7.26377886
  H     -0.02604703      3.25189556      9.29957239
  H      0.69603156      3.42082272     10.91026675
  H     -0.67416609      5.42823945     10.50676117
  H      0.10293296      5.69657215      8.93585276
  H      1.04015314      5.89374923     10.41842308
  H      5.74255341      4.10127279     10.37615008
  H      6.13678270      3.58976470      8.71109282
  H      5.71237212      2.37547851      9.95146838
  N      3.25080175      7.89395435      8.05055752
  C      4.33890914      7.99395628      8.80695771
  N      5.23328184      7.10792428      8.39472650
  C      4.69018530      6.38215945      7.37884041
  C      3.44750322      6.87964811      7.15726962
  C      2.07557851      8.71351304      8.17025580
  C      2.20599337      9.96148751      7.30425761
  C      6.53681942      6.90361732      8.95261926
  H      4.49306214      8.73236359      9.56610129
  H      5.24129850      5.58161418      6.92153778
  H      2.69718484      6.59318833      6.44938151
  H      1.20848941      8.11541190      7.87402273
  H      1.96978878      8.98164101      9.22413086
  H      1.38297893     10.64389181      7.49797522
  H      2.20456104      9.69615362      6.24930757
  H      3.14624729     10.46030540      7.53346066
  H      7.11118980      7.82759712      8.88179268
  H      7.03011680      6.10807035      8.39562360
  H      6.44081547      6.62197740     10.00200696
 Cl      3.51730239      8.40259136      1.30062068
 Cl      2.64584265      1.14426041     10.83434444
 Cl      3.35795579      6.52346593     10.83355009
 Cl      5.55730717     10.70841992      8.00189758
 Cl      7.14480405      4.27583810      6.53981540
