62
Energy =    -96.25570595 au
  N      9.02488010      3.94238223      2.97085778
  C     10.27162503      3.52805148      3.17667546
  N     10.23398406      2.29712609      3.67046248
  C      8.93242468      1.91308808      3.79085550
  C      8.16960500      2.95030941      3.34638356
  C      8.63286214      5.20330038      2.39023328
  C      9.02773333      5.25341922      0.91860875
  C     11.39045634      1.53023176      4.03165070
  H     11.20327985      4.02261960      2.91057596
  H      8.67687911      0.93734595      4.15617546
  H      7.10629969      3.09409330      3.26726627
  H      7.54584581      5.29159548      2.50977754
  H      9.13024233      6.00943652      2.93561650
  H      8.74902378      6.21542999      0.49777841
  H      8.51080990      4.47205303      0.36681686
  H     10.10112571      5.11393944      0.80707303
  H     11.16287961      0.46918512      3.94785567
  H     11.66683196      1.74498090      5.06550590
  H     12.21535125      1.82259706      3.37992574
  N      8.20656635      1.15522564      6.96072757
  C      8.78127635      0.02048102      7.34599507
  N     10.03810912      0.26674736      7.71244312
  C     10.28202266      1.59517657      7.50168414
  C      9.13311798      2.15136648      7.04294506
  C      6.82953978      1.29049852      6.55384756
  C      5.92119020      1.36533608      7.77579886
  C     11.00306406     -0.75101629      8.00545493
  H      8.28761368     -0.92363821      7.43831934
  H     11.23119615      2.04144073      7.71416852
  H      8.90376048      3.16774955      6.80959261
  H      6.73666859      2.20351405      5.96521133
  H      6.57803810      0.43498067      5.92121989
  H      4.91240161      1.62334849      7.46758630
  H      6.30420791      2.12892524      8.45146142
  H      5.89685543      0.41235435      8.30013938
  H     11.97656892     -0.29628885      8.17094822
  H     11.04633549     -1.42110708      7.14138491
  H     10.70789223     -1.31930733      8.88835104
  N      5.07234953      5.32498067      6.77631411
  C      5.18785941      4.77814920      7.98501060
  N      3.98312553      4.39804642      8.39913955
  C      3.07059502      4.70573007      7.43930842
  C      3.75651613      5.28938179      6.41895006
  C      6.10505585      5.96450942      5.99183481
  C      7.45912349      5.28772927      6.12878074
  C      3.66426411      3.76499098      9.64636775
  H      6.10790802      4.60696343      8.53197582
  H      2.02205974      4.53475976      7.61194708
  H      3.42722690      5.64834054      5.46608839
  H      5.79357068      5.91073670      4.94124942
  H      6.16792699      7.01391772      6.30141366
  H      8.21803822      5.91079122      5.66265145
  H      7.42870186      4.33939891      5.59934326
  H      7.73073114      5.12109958      7.16827277
  H      2.61051103      3.97624342      9.86997178
  H      4.31696467      4.14309827     10.42978550
  H      3.80038513      2.68574650      9.56729390
 Cl      0.46525016      4.49551608      9.44778604
 Cl      7.92461145      3.72401672      9.36447065
 Cl      9.42784793     -1.25297855      5.13457858
 Cl      5.35559746      4.76592087      3.01228120
 Cl     13.20351416      3.91687139      2.19932721
