#B3LYP/6-31+G(d) OPT FREQ

62, Energy =    -96.24853018 au

0 1
  N     -0.17062810      2.99027350      8.07903027
  C     -0.32967354      1.97615139      7.23054945
  N     -1.27744503      1.16854381      7.69649785
  C     -1.74616418      1.67616926      8.86714050
  C     -1.05276470      2.82097907      9.10984599
  C      0.72229114      4.10401316      7.87802045
  C     -0.05975394      5.33880691      7.44034186
  C     -1.75119106     -0.04579691      7.09254718
  H      0.27392113      1.84660599      6.34619002
  H     -2.54573569      1.16047937      9.38898846
  H     -1.11830985      3.50969860      9.92595035
  H      1.25512649      4.30424946      8.81028736
  H      1.43613154      3.81112132      7.10008904
  H      0.62662887      6.15492185      7.23496520
  H     -0.75889206      5.65193473      8.21404301
  H     -0.62063882      5.11911688      6.53529968
  H     -2.08253217      0.14567862      6.07219609
  H     -2.58834892     -0.40700205      7.70507256
  H     -0.95561904     -0.79094578      7.07248401
  N      3.78999818      5.65555430      2.62596279
  C      2.94683063      4.85071849      3.26845199
  N      1.69788529      5.18449601      2.94076615
  C      1.75369373      6.23151604      2.06534471
  C      3.06657039      6.51995725      1.86404322
  C      5.23279754      5.60069351      2.62320274
  C      5.71605610      4.62820163      1.55480181
  C      0.51049264      4.55178141      3.44103729
  H      3.17945187      4.06042792      3.96444127
  H      0.87266780      6.68205216      1.65685386
  H      3.55831853      7.30762001      1.31687519
  H      5.58522594      6.61343843      2.40735409
  H      5.57612390      5.28450903      3.60909218
  H      6.80060045      4.64835031      1.48847943
  H      5.30554727      4.90813441      0.58762926
  H      5.40241212      3.61336689      1.78858644
  H      0.81783873      3.75298614      4.12339737
  H     -0.06832799      4.13171652      2.61772840
  H     -0.10494015      5.27708079      3.97351521
  N     10.35832796      7.23296140      1.04983277
  C      9.56489017      6.86521175      0.03328494
  N      8.34253407      7.35849688      0.24751280
  C      8.31965256      7.93729004      1.48647876
  C      9.57382971      7.86241498      1.98789244
  C     11.73786635      6.85355692      1.18571849
  C     12.64649274      7.75703990      0.35257961
  C      7.19783586      7.15313319     -0.59123633
  H      9.91466311      6.48893705     -0.90695727
  H      7.40908446      8.36109506      1.87130288
  H      9.97399295      8.19738554      2.92124658
  H     12.00844180      6.91987230      2.24142668
  H     11.82712647      5.81056896      0.86543250
  H     13.68752147      7.48196098      0.50386852
  H     12.51453285      8.79829244      0.64518839
  H     12.41319818      7.66093816     -0.70531002
  H      7.36638308      7.58536862     -1.57789646
  H      6.34182165      7.63620701     -0.11571816
  H      7.02316828      6.08248736     -0.69445054
 Cl      5.15140077      8.88732121      1.47046046
 Cl      2.20984347      2.46625558      5.34474741
 Cl      9.30506447      4.48105919      0.51058051
 Cl     10.76199992     39.00442325     18.36669395
 Cl     -4.04869437     -0.40951461      9.39920835

