#B3LYP/6-31+G(d) OPT FREQ

62, Energy =    -96.24313370 au

0 1
  N     -0.60930772      2.19482863     10.58326073
  C      0.38141965      1.50539955     10.02265276
  N      0.21655058      0.21177648     10.28858322
  C     -0.91008991      0.07070178     11.03759534
  C     -1.43168313      1.31860035     11.22008096
  C     -0.82932573      3.61649118     10.48243904
  C     -1.45385483      3.96677659      9.13681947
  C      1.07696781     -0.86322882      9.88202759
  H      1.18804700      1.92536795      9.45391836
  H     -1.23487834     -0.91445824     11.32952245
  H     -2.27682151      1.69155202     11.77560428
  H     -1.52489291      3.88681588     11.29617140
  H      0.12553464      4.13254894     10.60830711
  H     -1.62250126      5.03823649      9.08722663
  H     -2.41278948      3.46540235      9.03712507
  H     -0.80954530      3.67192709      8.30783114
  H      0.54689996     -1.80879210     10.08904172
  H      2.00545036     -0.84266608     10.45358084
  H      1.30713727     -0.78361949      8.82046173
  N      6.31452875      7.96069393      2.30648627
  C      5.62647166      8.31112388      1.22488229
  N      4.44406658      7.70768814      1.25586976
  C      4.37565529      6.95278237      2.39162422
  C      5.55242632      7.11538120      3.05308284
  C      7.62882143      8.42083979      2.69033039
  C      7.56457547      9.85523780      3.20351966
  C      3.43511432      7.84388710      0.24362142
  H      5.91376058      8.96170887      0.39977834
  H      3.51473075      6.36778036      2.64046767
  H      5.94144388      6.68805048      3.96348246
  H      7.97740315      7.74499686      3.47906223
  H      8.29051945      8.35986328      1.82366522
  H      8.54987389     10.17513974      3.53193914
  H      6.88180796      9.91816357      4.04767227
  H      7.22151318     10.52661337      2.41907972
  H      2.53046978      8.27945225      0.66787635
  H      3.19653898      6.87044975     -0.18449998
  H      3.83804279      8.50566623     -0.53408534
  N      8.46217680      8.77554194      7.48685970
  C      9.27236624      8.38639221      6.50455185
  N     10.09736396      7.45156226      6.96686176
  C      9.84871842      7.28388709      8.29771924
  C      8.82310232      8.10848765      8.62400733
  C      7.38892350      9.72015012      7.33636026
  C      6.09616076      8.99609353      6.96601725
  C     11.09469306      6.80677854      6.16862812
  H      9.16794298      8.65315475      5.47570861
  H     10.40666739      6.59600536      8.89957570
  H      8.32916089      8.27051681      9.55983023
  H      7.27714403     10.27562419      8.27169328
  H      7.68604464     10.41861212      6.55094048
  H      5.35550143      9.69844921      6.59328212
  H      5.68505174      8.47892445      7.82995496
  H      6.31056945      8.25215097      6.20105522
  H     11.68183441      6.13069422      6.78669803
  H     11.73942175      7.57234453      5.73212416
  H     10.60192557      6.24689910      5.37090397
 Cl     -0.86363010     -3.22479987     10.81689147
 Cl      7.69810736      6.26457092      5.32047301
 Cl     10.88409366     10.34068825      6.43820591
 Cl     -3.07209289      3.69288968     12.77168582
 Cl      5.38705714      9.82466659     -1.48192775

