#B3LYP/6-31+G(d) OPT FREQ

62, Energy =    -96.26837555 au

0 1
  N      9.06176589      3.39982604      2.62695922
  C     10.16167470      4.14389002      2.66511755
  N     10.88466768      3.78812177      3.72247418
  C     10.23131718      2.79099384      4.38075581
  C      9.08375055      2.54695315      3.68968084
  C      8.06862491      3.43528930      1.58283644
  C      8.14420212      2.17359580      0.72952842
  C     12.14551136      4.33182285      4.13931847
  H     10.37708879      4.92376139      1.94188159
  H     10.69896250      2.30271969      5.22064113
  H      8.28171805      1.86630465      3.88522253
  H      7.08005123      3.52288898      2.04737451
  H      8.27776539      4.31275072      0.96909335
  H      7.40266881      2.23163764     -0.06207090
  H      7.94431531      1.28662104      1.32718115
  H      9.13029152      2.07990583      0.27812897
  H     12.74123532      4.59736947      3.26877745
  H     12.65201895      3.56554375      4.74257588
  H     11.99063961      5.22208798      4.75107758
  N      8.10266794      6.55776162      5.43416649
  C      7.47125896      6.10644839      4.35414471
  N      7.69083317      6.94071041      3.34556151
  C      8.49504199      7.94507349      3.78974562
  C      8.75233403      7.70560553      5.10478133
  C      8.09507387      5.97473395      6.75159542
  C      9.36751933      5.17526323      7.00710632
  C      7.16312569      6.81192440      2.01935748
  H      6.83974938      5.22722237      4.28169175
  H      8.84024658      8.72144346      3.13931729
  H      9.25992794      8.28938821      5.84601226
  H      8.01638627      6.80882983      7.46071106
  H      7.21688002      5.33267788      6.83177343
  H      9.34629150      4.76867595      8.01356056
  H     10.24245654      5.81397431      6.91829391
  H      9.45826841      4.34912651      6.30490567
  H      6.62809943      7.72042862      1.74498661
  H      6.48750554      5.96064397      1.99509465
  H      7.99178017      6.66142912      1.31331125
  N      5.31801110      9.17420535      5.09761412
  C      4.68676880      8.84572226      3.96941209
  N      4.35762282      7.55481711      4.02066522
  C      4.71408215      7.07253486      5.24989811
  C      5.31429330      8.08507192      5.92236499
  C      5.79473844     10.47739361      5.48625858
  C      6.52934048     11.18083828      4.35419461
  C      3.63260405      6.81683354      3.02901371
  H      4.59970694      9.46010774      3.09973811
  H      4.52888233      6.05325864      5.51765859
  H      5.78158776      8.13162205      6.88656410
  H      4.93261698     11.07425695      5.79706220
  H      6.46387032     10.32254404      6.33751620
  H      6.96418939     12.10294961      4.72986175
  H      5.84946609     11.42685644      3.54067337
  H      7.33220412     10.55098889      3.97752349
  H      2.56100663      6.89964809      3.21949483
  H      3.94300442      5.77092116      3.07485283
  H      3.84099909      7.22271870      2.04099724
 Cl      5.33445256      3.86718165      3.55180289
 Cl      2.42146172     10.01623405      4.24512875
 Cl      7.89063841      9.09674762      7.86696037
 Cl     12.82662006      1.68619291      5.95900701
 Cl      9.95746415      6.31518074      0.33788302

