62
Energy =    -96.26758639 au
  N      5.25364769      6.24950248      2.17973771
  C      4.94586703      7.38900671      2.79737830
  N      4.36993659      8.21758934      1.94116492
  C      4.28736048      7.57970153      0.74025649
  C      4.83446253      6.34276025      0.88798918
  C      5.86731365      5.09232151      2.78269752
  C      4.91172466      3.90576748      2.76046292
  C      3.94042257      9.55560812      2.20862711
  H      5.13766178      7.60494528      3.82829501
  H      3.86606537      8.05268780     -0.12157946
  H      4.89345281      5.51660046      0.20112858
  H      6.78121786      4.85465157      2.22877753
  H      6.12965412      5.35536149      3.80993626
  H      5.32968915      3.07908632      3.32886444
  H      4.74376731      3.58279020      1.73638791
  H      3.96536211      4.20826625      3.20133275
  H      3.02519054      9.76233456      1.65773697
  H      4.72335602     10.27263702      1.88346963
  H      3.76001733      9.67293813      3.27409366
  N      3.24634814      3.46191045      6.44497121
  C      3.26663531      2.29177385      7.07804321
  N      2.27123521      1.54600825      6.60748246
  C      1.59618165      2.25576802      5.66139272
  C      2.21206626      3.46226443      5.55608248
  C      4.15322303      4.56686191      6.65084178
  C      5.60043299      4.09597239      6.69334625
  C      1.92921127      0.20999727      7.00540176
  H      3.98064819      1.99750150      7.85290965
  H      0.75950612      1.81624636      5.14952632
  H      2.01284969      4.31436049      4.93264776
  H      3.97701596      5.27446158      5.83534435
  H      3.90166378      5.05511274      7.59798160
  H      6.25923743      4.95078042      6.82088674
  H      5.86247584      3.58579605      5.76975186
  H      5.75454206      3.41145466      7.52614700
  H      1.22535500     -0.19040637      6.27439572
  H      1.46271837      0.21607935      7.99174448
  H      2.82547784     -0.40670513      7.05124006
  N      0.92403335      4.63166195      1.50902749
  C      1.76901422      3.61241529      1.40423589
  N      1.29478734      2.58896767      2.10691206
  C      0.11922591      2.95987502      2.67956835
  C     -0.11110692      4.24756227      2.30539088
  C      1.10942522      5.93448311      0.91898007
  C      1.40663463      5.83536669     -0.56970836
  C      1.91879165      1.30591536      2.26599258
  H      2.66555950      3.59895578      0.78886206
  H     -0.44548408      2.27157345      3.28177807
  H     -0.91168807      4.91023655      2.55978180
  H      0.19785160      6.50992779      1.10047142
  H      1.93402877      6.42147811      1.44846278
  H      1.54446010      6.83087914     -0.98164061
  H      0.58141344      5.35394314     -1.09202374
  H      2.31279466      5.26004637     -0.74466701
  H      2.13663321      0.87417963      1.29017559
  H      1.23989443      0.65999535      2.82876682
  H      2.85443068      1.41514907      2.81387382
 Cl      4.14848245      3.50410536     -0.74331300
 Cl      2.52519387      6.32716605      3.88817871
 Cl     -0.49891854      0.08453982      4.32138925
 Cl      5.41724546      1.60507358      9.27497696
 Cl      6.30609728     11.44251255      1.15889997
