154
Energy =      0.00000000 au
  C     -2.28485689     -2.26240788     -6.10899603
  C     -2.52592773     -2.82455153     -7.36293001
  C     -1.53628880     -3.58178071     -7.98982020
  C     -0.30556210     -3.77695503     -7.36293001
  C     -0.06439832     -3.21485125     -6.10899603
  C     -1.05409560     -2.45762986     -5.48216767
  H     -3.06507024     -1.66550205     -5.61491773
  H     -3.49626501     -2.67048960     -7.85684501
  H      0.47482665     -4.37384942     -7.85684501
  H      0.90582637     -3.36877821     -5.61491773
  H     -0.86405748     -2.01458853     -4.49387176
  C     -1.80243798     -4.20226194     -9.37393276
  C     -2.01003435     -4.68623730    -10.45354057
  H     -2.19495619     -5.11735089    -11.41522919
  C      1.54127898      6.70815278     -0.53307533
  C      1.60992440      8.09731903     -0.64251020
  C      0.43773836      8.85148027     -0.69722093
  C     -0.80313518      8.21664791     -0.64251020
  C     -0.87188162      6.82748667     -0.53307533
  C      0.30035831      6.07339143     -0.47837000
  H      2.46538594      6.11375409     -0.48995552
  H      2.58831441      8.59745545     -0.68561575
  H     -1.72740760      8.81087344     -0.68561575
  H     -1.85012408      6.32716159     -0.48995552
  H      0.24621518      4.97851332     -0.39211822
  C      0.51356604     10.38486163     -0.81801690
  C      0.57271162     11.58089912     -0.91223776
  H      0.62539709     12.64630048     -0.99616743
  C     -1.78723862      3.73316608      5.52523798
  C     -1.90887007      4.53658895      6.65934050
  C     -0.77532033      5.11914295      7.22632230
  C      0.47989595      4.89838006      6.65934050
  C      0.60162740      4.09497234      5.52523798
  C     -0.53197834      3.51245038      4.95831210
  H     -2.68089211      3.27399226      5.07837597
  H     -2.89855312      4.71041457      7.10605481
  H      1.37372021      5.35747272      7.10605481
  H      1.59117137      3.92101862      5.07837597
  H     -0.43607434      2.87923359      4.06446209
  C     -0.90963428      6.00596571      8.47816297
  C     -1.01439916      6.69768749      9.45459871
  H     -1.10772120      7.31385656     10.32438412
  C     -6.12536801      2.62474458     -1.80267341
  C     -7.24526886      3.36998226     -2.17269223
  C     -7.13596994      4.74824427     -2.35767898
  C     -5.90687932      5.38140199     -2.17269223
  C     -4.78692244      4.63624852     -1.80267341
  C     -4.89630460      3.25798115     -1.61770491
  H     -6.21165430      1.53826353     -1.65687764
  H     -8.21405063      2.87052147     -2.31843981
  H     -5.82036038      6.46791645     -2.31843981
  H     -3.81808162      5.13548181     -1.65687764
  H     -4.01362565      2.67065059     -1.32607226
  C     -8.37216549      5.57080317     -2.76611172
  C     -9.33639805      6.21239913     -3.08468927
  H    -10.19531316      6.78391734     -3.36847047
  C      3.34319049      2.10811835     -5.66020296
  C      3.83932382      2.70014214     -6.82202506
  C      3.16155768      3.77207059     -7.40286496
  C      1.98768022      4.25208025     -6.82202506
  C      1.49146938      3.66012143     -5.66020296
  C      2.16929875      2.58818968     -5.07942035
  H      3.87756444      1.26312073     -5.20241881
  H      4.76475925      2.32148266     -7.27965790
  H      1.45312157      5.09710143     -7.27965790
  H      0.56608942      4.03860316     -5.20241881
  H      1.77823761      2.12160803     -4.16372299
  C      3.70924043      4.42552015     -8.68530294
  C      4.13643299      4.93521082     -9.68560459
  H      4.51696582      5.38923097    -10.57664918
  C      1.14608296     -6.78063715      0.60688408
  C      1.13333499     -8.17016686      0.73144618
  C     -0.08096663     -8.85380868      0.79371960
  C     -1.28257240     -8.14809052      0.73144618
  C     -1.26992558     -6.75855989      0.60688408
  C     -0.05557401     -6.07498705      0.54461680
  H      2.10338328     -6.24183289      0.55780380
  H      2.08078753     -8.72619560      0.78051024
  H     -2.24002776     -8.68671239      0.78051024
  H     -2.21721978     -6.20235162      0.55780380
  H     -0.04556648     -4.97982015      0.44644240
  C     -0.09498222    -10.38759451      0.93121326
  C     -0.10591438    -11.58394748      1.03845831
  H     -0.11565249    -12.64962986      1.13398962
  C      4.10187821     -1.61641368      5.31238441
  C      4.79312456     -2.14521905      6.40280378
  C      4.40479456     -3.36906199      6.94794669
  C      3.32527215     -4.06420451      6.40280378
  C      2.63396435     -3.53547948      5.31238441
  C      3.02235916     -2.31162244      4.76729527
  H      4.40809439     -0.65164663      4.88273455
  H      5.64410347     -1.59694953      6.83231163
  H      3.01887074     -5.02902715      6.83231163
  H      1.78299061     -4.08355567      4.88273455
  H      2.47752481     -1.89487284      3.90787442
  C      5.16783735     -3.95272155      8.15156919
  C      5.76301074     -4.40797601      9.09039476
  H      6.29317684     -4.81350571      9.92667794
  C     -5.38294367     -4.11691735     -1.31681582
  C     -6.60099178     -4.74122967     -1.58711926
  C     -7.76097279     -3.97836987     -1.72225442
  C     -7.70307794     -2.59122921     -1.58711926
  C     -6.48507596     -1.96682688     -1.31681582
  C     -5.32513195     -2.72976247     -1.18169399
  H     -4.46859631     -4.71838909     -1.21031017
  H     -6.64627307     -5.83478132     -1.69358971
  H     -8.61733816     -1.98953671     -1.69358971
  H     -6.43956458     -0.87333336     -1.21031017
  H     -4.36513788     -2.23767134     -0.96865264
  C     -9.10544850     -4.66754556     -2.02061972
  C    -10.15413957     -5.20510261     -2.25334465
  H    -11.08828829     -5.68394548     -2.46065041
  C      4.81913001     -4.32070384     -2.40136560
  C      5.93648413     -4.99524082     -2.89430642
  C      7.11943742     -4.29834680     -3.14074665
  C      7.18519957     -2.92695513     -2.89430642
  C      6.06789772     -2.25233157     -2.40136560
  C      4.88497339     -2.94930215     -2.15494968
  H      3.88666154     -4.87017645     -2.20713578
  H      5.88429409     -6.07635943     -3.08847204
  H      8.11760352     -2.37726053     -3.08847204
  H      6.11986126     -1.17125924     -2.20713578
  H      4.00434434     -2.41762749     -1.76643528
  C      8.35276209     -5.04295938     -3.68486268
  C      9.31475535     -5.62375721     -4.10927320
  H     10.17167576     -6.14111792     -4.48732786
  C     -4.64130807     -0.59024440      5.07628829
  C     -5.50021301     -0.94099768      6.11826980
  C     -5.47298156     -2.23470016      6.63919675
  C     -4.58693124     -3.17773913      6.11826980
  C     -3.72798807     -2.82707949      5.07628829
  C     -3.75528100     -1.53334748      4.55541273
  H     -4.66286806      0.42961588      4.66572404
  H     -6.19859133     -0.19731920      6.52869835
  H     -4.56520016     -4.19769880      6.52869835
  H     -3.02955712     -3.57056723      4.66572404
  H     -3.07831462     -1.25693599      3.73416847
  C     -6.42107579     -2.62181561      7.78935276
  C     -7.16058932     -2.92376567      8.68647446
  H     -7.81933013     -3.19273551      9.48560885
  C      5.53948934      3.88538873      1.36993512
  C      6.78039711      4.45770085      1.65114285
  C      7.90672689      3.64690546      1.79172949
  C      7.79232207      2.26382214      1.65114285
  C      6.55145667      1.69141818      1.36993512
  C      5.42516690      2.50228771      1.22936234
  H      4.65167357      4.52464520      1.25913292
  H      6.87022878      5.54806905      1.76190842
  H      8.68004188      1.62434885      1.76190842
  H      6.46139777      0.60111773      1.25913292
  H      4.44715436      2.05118014      1.00772671
  C      9.27643754      4.27868350      2.10213112
  C     10.34481186      4.77147038      2.34424440
  H     11.29649395      5.21043305      2.55991307
