#B3LYP/6-31+G(d) OPT FREQ

154, Energy =      0.00000000 au

0 1
  C     -2.32871970     -1.69860122      6.27303329
  C     -2.85544385     -1.80405416      7.56063276
  C     -3.35602308     -0.67232257      8.20435364
  C     -3.32995261      0.56489863      7.56063276
  C     -2.80324833      0.67045075      6.27303329
  C     -2.30268513     -0.46133563      5.62937591
  H     -1.93414154     -2.59081963      5.76569003
  H     -2.87584091     -2.77955324      8.06780834
  H     -3.72449295      1.45728443      8.06780834
  H     -2.78275189      1.64580992      5.76569003
  H     -1.88755202     -0.37818315      4.61454633
  C     -3.93741874     -0.78877797      9.62562671
  C     -4.39090736     -0.87961318     10.73421973
  H     -4.79486409     -0.96052699     11.72172766
  C     -3.49921921     -2.51768159     -5.39219041
  C     -4.30009998     -2.80062277     -6.49898999
  C     -5.10294955     -1.80311147     -7.05232200
  C     -5.10503329     -0.52264597     -6.49898999
  C     -4.30418622     -0.23960944     -5.39219041
  C     -3.50135929     -1.23718237     -4.83891298
  H     -2.86637383     -3.30410566     -4.95608638
  H     -4.29821504     -3.81016572     -6.93494989
  H     -5.73782658      0.26396269     -6.93494989
  H     -4.30591465      0.76982263     -4.95608638
  H     -2.87015337     -1.01414293     -3.96658195
  C     -5.98695607     -2.11547914     -8.27402525
  C     -6.67648117     -2.35912592     -9.22695380
  H     -7.29069351     -2.57616060    -10.07579958
  C      5.09914811      4.58867110     -0.77577498
  C      6.27664476      5.31984736     -0.93500424
  C      7.50260056      4.65919014     -1.01460912
  C      7.55123062      3.26740326     -0.93500424
  C      6.37378734      2.53614108     -0.77577498
  C      5.14786291      3.19687731     -0.69617795
  H      4.13278480      5.10958228     -0.71303505
  H      6.23794495      6.41703020     -0.99772343
  H      8.51752326      2.74626374     -0.99772343
  H      6.41225114      1.43899612     -0.71303505
  H      4.21983259      2.62056230     -0.57068040
  C      8.80231092      5.46632172     -1.19036896
  C      9.81608501      6.09588437     -1.32746163
  H     10.71913053      6.65668359     -1.44958048
  C      3.72470374     -2.10082383     -5.41962147
  C      4.54508213     -2.29037908     -6.53205985
  C      5.22724033     -1.20819207     -7.08821092
  C      5.08913201      0.06357624     -6.53205985
  C      4.26877640      0.25323003     -5.41962147
  C      3.58664727     -0.82901560     -4.86352527
  H      3.18700819     -2.95399249     -4.98129563
  H      4.65373070     -3.29309264     -6.97024082
  H      5.62675602      0.91692226     -6.97024082
  H      4.15998571      1.25581562     -4.98129563
  H      2.94006988     -0.67957761     -3.98674999
  C      6.13277466     -1.41748060     -8.31613835
  C      6.83909146     -1.58072566     -9.27392177
  H      7.46826143     -1.72614042    -10.12709215
  C     -2.13883509      6.06846275      2.50160773
  C     -2.33261445      7.35112731      3.01511745
  C     -1.23507424      8.17287612      3.27184086
  C      0.05627160      7.71212503      3.01511745
  C      0.25015096      6.42947559      2.50160773
  C     -0.84744882      5.60778247      2.24490965
  H     -3.00410799      5.42076961      2.29927331
  H     -3.35076333      7.71403537      3.21738500
  H      0.92172467      8.35967455      3.21738500
  H      1.26817015      6.06637708      2.29927331
  H     -0.69468099      4.59684833      1.84018374
  C     -1.44902621      9.58869362      3.83866118
  C     -1.61590876     10.69303129      4.28078103
  H     -1.76456371     11.67674866      4.67461074
  C      3.30560954      2.74433797      5.40373863
  C      4.08249041      3.07997651      6.51291577
  C      4.95003706      2.13889086      7.06743641
  C      5.04081806      0.86216136      6.51291577
  C      4.26397731      0.52642998      5.40373863
  C      3.39644890      1.46757860      4.84927269
  H      2.62175727      3.48628419      4.96669779
  H      4.01067622      4.08655776      6.94981216
  H      5.72463131      0.12002759      6.94981216
  H      4.33562817     -0.48005116      4.96669779
  H      2.78416119      1.20300639      3.97506778
  C      5.80754857      2.50942534      8.29176403
  C      6.47640755      2.79844224      9.24673960
  H      7.07221101      3.05589153     10.09740881
  C      1.94953571     -6.04779073     -2.69872385
  C      2.10342893     -7.31898139     -3.25267532
  C      0.98114898     -8.09972686     -3.52961713
  C     -0.29505553     -7.60944345     -3.25267532
  C     -0.44904915     -6.33826496     -2.69872385
  C      0.67328859     -5.55757609     -2.42180936
  H      2.83430806     -5.43242158     -2.48045447
  H      3.10965114     -7.70517871     -3.47087257
  H     -1.18000347     -8.22466590     -3.47087257
  H     -1.45513586     -5.95188325     -2.48045447
  H      0.55195712     -4.55568401     -1.98520904
  C      1.15107421     -9.50288091     -4.14107771
  C      1.28361589    -10.59734110     -4.61801696
  H      1.40168082    -11.57225984     -5.04286295
  C     -3.38928708     -5.78931750      1.62960341
  C     -4.27295929     -6.81583047      1.96406653
  C     -5.63025823     -6.54096216      2.13127761
  C     -6.10403151     -5.23967362      1.96406653
  C     -5.22043595     -4.21309466      1.62960341
  C     -3.86314226     -4.48804659      1.46240882
  H     -2.31934720     -6.00612138      1.49781738
  H     -3.89912899     -7.84156747      2.09580899
  H     -7.17397506     -5.02263383      2.09580899
  H     -5.59403242     -3.18732620      1.49781738
  H     -3.16670068     -3.67896796      1.19879962
  C     -6.60562757     -7.67408016      2.50046340
  C     -7.36641567     -8.55791222      2.78842832
  H     -8.04410736     -9.34520851      3.04494053
  C      0.49052844      5.16085699     -4.55894854
  C      0.34563825      6.18545909     -5.49472010
  C     -0.92288521      6.52861691     -5.96254857
  C     -2.04658630      5.84729105     -5.49472010
  C     -1.90179626      4.82267480     -4.55894854
  C     -0.63322987      4.47957458     -4.09116621
  H      1.49056072      4.89043620     -4.19023341
  H      1.23170399      6.72236510     -5.86331336
  H     -3.04675486      6.11755648     -5.86331336
  H     -2.78768799      4.28565729     -4.19023341
  H     -0.51907323      3.67202244     -3.35363199
  C     -1.08276206      7.65959705     -6.99546832
  C     -1.20746601      8.54176158     -7.80114574
  H     -1.31854928      9.32757248     -8.51882377
  C      5.27531183     -3.58910765      2.63598286
  C      6.18231406     -4.50074877      3.17702672
  C      5.77944713     -5.80853568      3.44751551
  C      4.46965320     -6.20482878      3.17702672
  C      3.56257927     -5.29325900      2.63598286
  C      3.96552678     -3.98548138      2.36552075
  H      5.59301137     -2.55820387      2.42279937
  H      7.21479354     -4.18800202      3.39013975
  H      4.15172446     -7.23572437      3.39013975
  H      2.53009275     -5.60577652      2.42279937
  H      3.25063904     -3.26699384      1.93909365
  C      6.78065040     -6.81478049      4.04472845
  C      7.56158897     -7.59965145      4.51055455
  H      8.25723022     -8.29879559      4.92550120
  C     -6.81866276      1.03618284      0.30227035
  C     -8.13862104      1.48376978      0.36429538
  C     -8.41064068      2.85154765      0.39530410
  C     -7.36284748      3.77184130      0.36429538
  C     -6.04285672      3.32435015      0.30227035
  C     -5.77091841      1.95654645      0.27126469
  H     -6.60435577     -0.04206483      0.27783109
  H     -8.96439201      0.75799641      0.38872657
  H     -7.57693225      4.85017909      0.38872657
  H     -5.21696417      4.04991685      0.27783109
  H     -4.73057222      1.60381575      0.22237927
  C     -9.86764986      3.34554847      0.46376833
  C    -11.00411704      3.73086912      0.51717043
  H    -12.01645461      4.07410346      0.56473974

