#B3LYP/6-31+G(d) OPT FREQ

154, Energy =      0.00000000 au

0 1
  C      6.27790683     -2.52238375     -1.37271514
  C      7.61639269     -2.79719646     -1.65450339
  C      8.52854708     -1.75129943     -1.79538027
  C      8.10238973     -0.43057381     -1.65450339
  C      6.76392422     -0.15566202     -1.37271514
  C      5.85182566     -1.20162215     -1.23185216
  H      5.55894790     -3.34695212     -1.26168420
  H      7.95200722     -3.83848639     -1.76549763
  H      8.82120587      0.39418385     -1.76549763
  H      6.42810386      0.88551021     -1.26168420
  H      4.79689767     -0.98498775     -1.00975898
  C     10.00597815     -2.05469681     -2.10642269
  C     11.15837440     -2.29134678     -2.34903579
  H     12.18490119     -2.50214886     -2.56514968
  C      2.79844822     -4.66839362     -4.24662560
  C      3.13714040     -5.70373863     -5.11830178
  C      2.15837505     -6.59698138     -5.55408649
  C      0.84091095     -6.45502166     -5.11830178
  C      0.50212264     -5.41970811     -4.24662560
  C      1.48095276     -4.52650068     -3.81088388
  H      3.57009978     -3.96431135     -3.90316550
  H      4.17583938     -5.81535904     -5.46164837
  H      0.06906635     -7.15901783     -5.46164837
  H     -0.53647153     -5.30790414     -3.90316550
  H      1.21397252     -3.71049943     -3.12386684
  C      2.53228200     -7.73979455     -6.51625673
  C      2.82392942     -8.63118884     -7.26674953
  H      3.08372191     -9.42522139     -7.93527042
  C      3.32711055      1.87182481     -5.75199525
  C      3.82629482      2.42260816     -6.93264075
  C      3.18084481      3.50924115     -7.52289119
  C      2.03623421      4.04519219     -6.93264075
  C      1.53697500      3.49447676     -5.75199525
  C      2.18248710      2.40783698     -5.16180302
  H      3.83600821      1.01523037     -5.28679426
  H      4.72865284      1.99985217     -7.39768798
  H      1.52715545      4.90182014     -7.39768798
  H      0.63466807      3.91705580     -5.28679426
  H      1.78902236      1.97376039     -4.23126988
  C      3.73189383      4.11716721     -8.82610675
  C      4.16171207      4.59134956     -9.84261490
  H      4.54458379      5.01373976    -10.74809586
  C     -4.05367131     -1.42975111     -5.40209449
  C     -4.89916073     -1.47556522     -6.51093161
  C     -5.38728595     -0.29226405     -7.06528227
  C     -5.03002806      0.93689611     -6.51093161
  C     -4.18454412      0.98281121     -5.40209449
  C     -3.69645785     -0.20054272     -4.84779852
  H     -3.66894546     -2.36261832     -4.96518763
  H     -5.18059797     -2.44472629     -6.94769407
  H     -5.41465229      1.86992575     -6.94769407
  H     -3.90298828      1.95182180     -4.96518763
  H     -3.03008223     -0.16439424     -3.97386161
  C     -6.32054779     -0.34289014     -8.28923457
  C     -7.04849204     -0.38237849     -9.24391739
  H     -7.69692723     -0.41755376    -10.09432582
  C      4.60213247     -2.95759954      4.21094216
  C      5.36991272     -3.73856309      5.07528033
  C      4.89238519     -4.97590525      5.50739648
  C      3.64713540     -5.43241498      5.07528033
  C      2.87928303     -4.65152234      4.21094216
  C      3.35688448     -3.41418323      3.77886864
  H      4.97867622     -1.98221729      3.87037341
  H      6.35154214     -3.37837589      5.41573652
  H      3.27037992     -6.40780539      5.41573652
  H      1.89766535     -5.01149799      3.87037341
  H      2.75172525     -2.79868986      3.09763510
  C      5.73991323     -5.83790629      6.46146690
  C      6.40098511     -6.51026711      7.20564183
  H      6.98985200     -7.10918991      7.86853493
  C      5.65996586      3.63207231      1.55945598
  C      6.65246267      4.55886912      1.87956345
  C      6.32423542      5.90513376      2.03959757
  C      5.00359842      6.32475207      1.87956345
  C      4.01103258      5.39802918      1.55945598
  C      4.33934329      4.05177327      1.39943764
  H      5.91883192      2.57083600      1.43332641
  H      7.69346592      4.22772621      2.00565133
  H      4.74449616      7.38598221      2.00565133
  H      2.97000701      5.72893687      1.43332641
  H      3.55707351      3.32134169      1.14714294
  C      7.41980751      6.92810624      2.39293736
  C      8.27435376      7.72602479      2.66854239
  H      9.03556296      8.43679140      2.91404472
  C     -0.76544953      6.71710580     -1.39772859
  C     -1.16000165      8.02419490     -1.68463932
  C     -2.51370809      8.32862389     -1.82807712
  C     -3.47295914      7.32610928     -1.68463932
  C     -3.07850385      6.01899096     -1.39772859
  C     -1.72476845      5.71464104     -1.25430494
  H      0.30171053      6.47724734     -1.28467928
  H     -0.40352694      8.81426824     -1.79765127
  H     -4.54021783      7.56575224     -1.79765127
  H     -3.83477717      5.22879267     -1.28467928
  H     -1.41383789      4.68443907     -1.02817445
  C     -2.94916764      9.77142605     -2.14477382
  C     -3.28882610     10.89681176     -2.39179725
  H     -3.59138567     11.89927822     -2.61183977
  C     -1.63817728      3.67332836      5.61089197
  C     -1.72803764      4.45564186      6.76257844
  C     -0.57288333      4.98467575      7.33835115
  C      0.67217057      4.73149772      6.76257844
  C      0.76213141      3.94919576      5.61089197
  C     -0.39307757      3.42019468      5.03517606
  H     -2.54885946      3.25634517      5.15710149
  H     -2.70971739      4.65503273      7.21621894
  H      1.58302013      5.14839692      7.21621894
  H      1.74366721      3.74968512      5.15710149
  H     -0.32221396      2.80361394      4.12746716
  C     -0.67212810      5.84819965      8.60960126
  C     -0.74953903      6.52174831      9.60117637
  H     -0.81849482      7.12172922     10.48444757
  C     -2.60263083     -6.39113034     -0.19681494
  C     -3.34663114     -7.57066445     -0.23723593
  C     -4.74032043     -7.51594396     -0.25744395
  C     -5.39014331     -6.28180685     -0.23723593
  C     -4.64622855     -5.10221879     -0.19681494
  C     -3.25253317     -5.15702442     -0.17660891
  H     -1.50398746     -6.43439580     -0.18088815
  H     -2.83403049     -8.54340730     -0.25315745
  H     -6.48882233     -6.23830420     -0.25315745
  H     -5.15859978     -4.12940592     -0.18088815
  H     -2.66617838     -4.22734596     -0.14475085
  C     -5.56151277     -8.81796253     -0.30206129
  C     -6.20204280     -9.83353703     -0.33686282
  H     -6.77261151    -10.73818631     -0.36786318
  C     -6.26571056      2.66701106      1.13448499
  C     -7.60692421      2.97260808      1.36735287
  C     -8.54585352      1.94760526      1.48377255
  C     -8.14374468      0.61699357      1.36735287
  C     -6.80255350      0.31129795      1.13448499
  C     -5.86367910      1.33636514      1.01807680
  H     -5.52564377      3.47511065      1.04272979
  H     -7.92357602      4.02168373      1.45907775
  H     -8.88367162     -0.19129859      1.45907775
  H     -6.48569222     -0.73766474      1.04272979
  H     -4.80660202      1.09546808      0.83454052
  C    -10.02629439      2.28498260      1.74081587
  C    -11.18103829      2.54813693      1.94130967
  H    -12.20965631      2.78254846      2.11990471
  C     -3.51723634     -1.69293480      5.69401130
  C     -4.06777758     -2.21964315      6.86275151
  C     -3.50800424     -3.35587446      7.44705005
  C     -2.39772215     -3.96549846      6.86275151
  C     -1.84711099     -3.43886319      5.69401130
  C     -2.40694644     -2.30262132      5.10977040
  H     -3.95859580     -0.79723667      5.23350126
  H     -4.94305256     -1.73880437      7.32310935
  H     -1.95618267     -4.86124123      7.32310935
  H     -0.97187262     -3.91952016      5.23350126
  H     -1.97300636     -1.88752164      4.18862048
  C     -4.11573914     -3.93722330      8.73712436
  C     -4.58977236     -4.39067540      9.74338234
  H     -5.01202973     -4.79459961     10.63973270

