154
Energy =      0.00000000 au
  C      2.40703508     -6.24174387     -1.70474556
  C      3.11261375     -7.39334453     -2.05466797
  C      4.49540384     -7.33802576     -2.22960775
  C      5.17274481     -6.13122095     -2.05466797
  C      4.46725238     -4.97956745     -1.70474556
  C      3.08445396     -5.03496944     -1.52982303
  H      1.31698004     -6.28547799     -1.56686822
  H      2.57832709     -8.34454468     -2.19249973
  H      6.26284157     -6.08725500     -2.19249973
  H      5.00131355     -4.02829918     -1.56686822
  H      2.52838170     -4.12730734     -1.25402949
  C      5.27418536     -8.60921031     -2.61585776
  C      5.88163496     -9.60073429     -2.91713277
  H      6.42273642    -10.48395994     -3.18550129
  C      5.18520849      2.59139584     -3.74930321
  C      6.31173169      2.88321668     -4.51888563
  C      7.17789794      1.85974193     -4.90362971
  C      6.91769164      0.54443314     -4.51888563
  C      5.79119380      0.25251440     -3.74930321
  C      4.92507042      1.27605249     -3.36459708
  H      4.50248190      3.39828930     -3.44607035
  H      6.51656027      3.92023038     -4.82201826
  H      7.60031083     -0.26265001     -4.82201826
  H      5.58617923     -0.78438564     -3.44607035
  H      4.03720410      1.04601349     -2.75804587
  C      8.42135843      2.18191251     -5.75310721
  C      9.39125764      2.43320557     -6.41569967
  H     10.25522047      2.65705137     -7.00592106
  C      5.95966230     -1.20700248      3.26870815
  C      7.18290182     -1.20674256      3.93964485
  C      7.79423992      0.00136622      4.27507211
  C      7.18248832      1.20926566      3.93964485
  C      5.95924879      1.20910688      3.26870815
  C      5.34797102      0.00094754      2.93331397
  H      5.47784129     -2.15942198      3.00434394
  H      7.66488953     -2.15915379      4.20392168
  H      7.66415000      2.16184182      4.20392168
  H      5.47710180      2.16136140      3.00434394
  H      4.38386712      0.00078254      2.40451101
  C      9.14447145      0.00159730      5.01566286
  C     10.19765207      0.00177755      5.59332366
  H     11.13579997      0.00193812      6.10788998
  C      1.21603967      6.49951499      1.98407071
  C      1.69699461      7.74422887      2.39130619
  C      3.06424653      7.93116390      2.59489899
  C      3.95064958      6.87351928      2.39130619
  C      3.46978899      5.62876895      1.98407071
  C      2.10251361      5.44191352      1.78049799
  H      0.13821021      6.35227689      1.82361073
  H      0.99793340      8.57779026      2.55171313
  H      5.02856258      7.02053880      2.55171313
  H      4.16864141      4.79510192      1.82361073
  H      1.72348314      4.46087012      1.45953280
  C      3.59508029      9.30511929      3.04441208
  C      4.00913063     10.37680451      3.39503230
  H      4.37795669     11.33143587      3.70735634
  C     -4.24065514      5.04336065      2.05917632
  C     -5.26843745      5.88685708      2.48184444
  C     -6.54864423      5.37481020      2.69315261
  C     -6.80122665      4.01933113      2.48184444
  C     -5.77350851      3.17575653      2.05917632
  C     -4.49332033      3.68788409      1.84788898
  H     -3.23150673      5.44712603      1.89263553
  H     -5.06896939      6.95537781      2.64833018
  H     -7.81034062      3.61533478      2.64833018
  H     -5.97274332      2.10724706      1.89263553
  H     -3.68329255      3.02304629      1.51476046
  C     -7.68309151      6.30591832      3.15970050
  C     -8.56796042      7.03218266      3.52360786
  H     -9.35618030      7.67912143      3.84776777
  C     -4.01485189     -5.50872744      1.09267670
  C     -5.01031427     -6.46016023      1.31695633
  C     -6.34265589     -6.06258496      1.42908242
  C     -6.67969199     -4.71365688      1.31695633
  C     -5.68429950     -3.76215099      1.09267670
  C     -4.35197203     -4.15980973      0.98056168
  H     -2.96459923     -5.82226003      1.00430546
  H     -4.74426548     -7.52348298      1.40529837
  H     -7.72992329     -4.39988712      1.40529837
  H     -5.95011039     -2.69881759      1.00430546
  H     -3.56741967     -3.40990321      0.80379428
  C     -7.44142475     -7.11283217      1.67664590
  C     -8.29846449     -7.93202501      1.86974541
  H     -9.06189482     -8.66174225      2.04175381
  C     -1.63753039     -2.41933363     -6.25494106
  C     -1.72915789     -2.95756437     -7.53883479
  C     -0.58413873     -3.42948472     -8.18070303
  C      0.65254656     -3.36324874     -7.53883479
  C      0.74427376     -2.82503499     -6.25494106
  C     -0.40079978     -2.35313269     -5.61313613
  H     -2.54022267     -2.04735010     -5.74905794
  H     -2.70423858     -3.00962787     -8.04455071
  H      1.55540523     -3.73518849     -8.04455071
  H      1.71921193     -2.77287508     -5.74905794
  H     -0.32854370     -1.92892945     -4.60122725
  C     -0.68533367     -4.02358312     -9.59788565
  C     -0.76426572     -4.48697988    -10.70328812
  H     -0.83457650     -4.89976254    -11.68795398
  C      2.08786562     -4.77246909      4.53027340
  C      2.27233925     -5.79607059      5.46015536
  C      1.17574820     -6.52211705      5.92503940
  C     -0.10534363     -6.22469634      5.46015536
  C     -0.28991679     -5.20111278      4.53027340
  C      0.80673312     -4.47510783      4.06543521
  H      2.95238924     -4.20019573      4.16387890
  H      3.28240581     -6.03027328      5.82642876
  H     -0.97004549     -6.79686420      5.82642876
  H     -1.29985318     -4.96674899      4.16387890
  H      0.66129985     -3.66835696      3.33254292
  C      1.37942810     -7.65197501      6.95145813
  C      1.53829843     -8.53326423      7.75206475
  H      1.67981628     -9.31829543      8.46522582
  C     -5.92308034     -0.97738736     -3.40896982
  C     -7.12915548     -0.93016562     -4.10870112
  C     -7.68490969      0.30049835     -4.45852392
  C     -7.03473451      1.48399688     -4.10870112
  C     -5.82865542      1.43687620     -3.40896982
  C     -5.27296265      0.20616403     -3.05918153
  H     -5.48507738     -1.94758335     -3.13325989
  H     -7.64144482     -1.86335127     -4.38431993
  H     -7.47257428      2.45434330     -4.38431993
  H     -5.31621514      2.36989914     -3.13325989
  H     -4.32238542      0.16898574     -2.50768392
  C     -9.01619708      0.35256670     -5.23089863
  C    -10.05460126      0.39318001     -5.83335091
  H    -10.97958667      0.42935736     -6.37000088
  C     -1.83999453      4.93128024     -4.46720892
  C     -1.97160329      5.97453925     -5.38413902
  C     -0.83892683      6.64735264     -5.84254792
  C      0.42539244      6.27704113     -5.38413902
  C      0.55710154      5.23379478     -4.46720892
  C     -0.57563158      4.56102651     -4.00884524
  H     -2.73296064      4.40097558     -4.10591776
  H     -2.96846089      6.26620933     -5.74531078
  H      1.31853115      6.80722955     -5.74531078
  H      1.55382084      4.94196922     -4.10591776
  H     -0.47186377      3.73878038     -3.28616104
  C     -0.98425408      7.79891178     -6.85467017
  C     -1.09760934      8.69712793     -7.64412554
  H     -1.19858347      9.49723722     -8.34735335
  C     -1.97674847      0.26451059      6.60922219
  C     -2.20740765      0.49448018      7.96582875
  C     -1.46996562      1.46503113      8.64404896
  C     -0.50185697      2.20567647      7.96582875
  C     -0.27112639      1.97577852      6.60922219
  C     -1.00861549      1.00520309      5.93106889
  H     -2.55813984     -0.50060424      6.07468857
  H     -2.97067758     -0.08957738      8.50018570
  H      0.07967506      2.97087234      8.50018570
  H      0.49206297      2.55969516      6.07468857
  H     -0.82679188      0.82397935      4.86185093
  C     -1.72461036      1.71883574     10.14149317
  C     -1.92323325      1.91680333     11.30949969
  H     -2.10016174      2.09314809     12.34993173
