#B3LYP/6-31+G(d) OPT FREQ

195, Energy =      0.00000000 au

0 1
 Au     -0.00000027     -0.00000021     -0.00000207
 Au     -0.00000027     -0.00000021      2.78370580
 Au      0.00000072     -2.48982370      1.24491098
 Au     -2.36796282     -0.76939892      1.24491098
 Au      2.36796228     -0.76939892      1.24491098
 Au     -1.46348100      2.01430989      1.24491098
 Au      1.46348206      2.01430872      1.24491098
 Au     -1.46348161     -2.01431220     -1.24491135
 Au      1.46348107     -2.01431220     -1.24491135
 Au     -2.36796442      0.76939967     -1.24491135
 Au      2.36796488      0.76939662     -1.24491135
 Au      0.00000133      2.48982517     -1.24491135
 Au     -0.00000027     -0.00000021     -2.78370994
 Au     -0.00000027     -0.00000021      5.60588488
 Au      0.00000173     -5.01405688      2.50702889
 Au     -4.76865092     -1.54943083      2.50702889
 Au      4.76865038     -1.54943083      2.50702889
 Au     -2.94718722      4.05645802      2.50702889
 Au      2.94718991      4.05645567      2.50702889
 Au     -2.94718845     -4.05646224     -2.50702543
 Au     -4.76865415      1.54943276     -2.50702543
 Au      4.76865561      1.54942661     -2.50702543
 Au      0.00000296      5.01406026     -2.50702543
 Au     -0.00000027     -0.00000021     -5.60588902
 Au     -0.00000027     -2.60015485      4.20713395
 Au     -2.47289428     -0.80349218      4.20713395
 Au      2.47289374     -0.80349218      4.20713395
 Au     -1.52833282      2.10356908      4.20713395
 Au      1.52833228      2.10356908      4.20713395
 Au     -2.47288939     -3.40364632      2.60015373
 Au      2.47288885     -3.40364632      2.60015373
 Au     -1.52832980     -4.70372283      0.00000511
 Au      1.52832926     -4.70372283      0.00000511
 Au     -4.00122485      1.30007614      2.60015197
 Au     -4.00122633     -2.90705846     -0.00000179
 Au     -4.94578612      0.00000132     -0.00000065
 Au      4.00122431      1.30007614      2.60015197
 Au      4.00122579     -2.90705846     -0.00000179
 Au      4.94578558      0.00000132     -0.00000065
 Au      0.00000137      4.20713560      2.60015291
 Au     -4.00122569      2.90705892      0.00000335
 Au     -1.52833191      4.70372172     -0.00000074
 Au      4.00122515      2.90705892      0.00000335
 Au      1.52833137      4.70372172     -0.00000074
 Au     -0.00000287     -4.20713771     -2.60015431
 Au     -4.00122884     -1.30007568     -2.60015041
 Au     -1.52833330     -2.10356706     -4.20713914
 Au      4.00122830     -1.30007568     -2.60015041
 Au      1.52833276     -2.10356706     -4.20713914
 Au     -2.47289157      3.40364784     -2.60015326
 Au     -2.47289546      0.80349567     -4.20713665
 Au      2.47289103      3.40364784     -2.60015326
 Au      2.47289492      0.80349567     -4.20713665
 Au     -0.00000027      2.60015737     -4.20713628
 Au      2.94718791     -4.05646224     -2.50702543
  C    -12.47692482     -3.77407230      0.08853007
  C    -11.12998954     -3.53044376      0.35849584
  C    -10.23378467     -4.59519772      0.45277408
  C    -10.68434078     -5.90360004      0.27711790
  C    -12.03125741     -6.14732793      0.00714872
  C    -12.92740518     -5.08251228     -0.08711450
  H    -13.18330895     -2.93464130      0.01423417
  H    -10.77513950     -2.49886115      0.49691663
  H     -9.97810316     -6.74321668      0.35137337
  H    -12.38631176     -7.17878836     -0.13130194
  H    -13.98899331     -5.27456879     -0.29989105
  C     -8.74702607     -4.32622177      0.75076854
  C     -7.58735433     -4.11642053      0.98320422
  H     -6.55434671     -3.92953464      1.19025232
  C     -1.15715143     12.79447623      2.48264326
  C     -1.07804682     11.43558920      2.17663751
  C     -2.24443403     10.68598312      2.02365338
  C     -3.48996664     11.29509470      2.17663751
  C     -3.56917222     12.65397586      2.48264326
  C     -2.40273062     13.40351786      2.63561230
  H     -0.23761488     13.38528708      2.60321643
  H     -0.09598636     10.95572408      2.05610419
  H     -4.40966993     10.70445171      2.05610419
  H     -4.55108656     13.13402705      2.60321643
  H     -2.46511720     14.47453087      2.87679265
  C     -2.15706136      9.18602492      1.68587930
  C     -2.08891068      8.01605750      1.42241551
  H     -2.02820369      6.97387874      1.18772832
  C     -1.86509403     -5.86828990     11.81223572
  C     -1.41105728     -5.24329176     10.65047026
  C     -2.16133357     -4.22078702     10.06965868
  C     -3.36563189     -3.82317415     10.65047026
  C     -3.81975046     -4.44811285     11.81223572
  C     -3.06941087     -5.47061649     12.39299002
  H     -1.27356080     -6.67432053     12.26999755
  H     -0.46162272     -5.55699253     10.19285973
  H     -3.95735102     -3.01713282     10.19285973
  H     -4.76911739     -4.13458557     12.26999755
  H     -3.42729502     -5.96318927     13.30864274
  C     -1.66011532     -3.53093679      8.78728321
  C     -1.26916508     -2.99285361      7.78703032
  H     -0.92091604     -2.51354207      6.89602917
  C     -5.48961474      4.15184320     11.37336545
  C     -4.75489981      3.91313764     10.21160615
  C     -4.76077298      2.64491071      9.63079765
  C     -5.50128670      1.61531203     10.21160615
  C     -6.23603288      1.85392140     11.37336545
  C     -6.23010786      3.12218466     11.95411666
  H     -5.48490596      5.15163167     11.83112485
  H     -4.17123746      4.72503334      9.75399805
  H     -5.50613957      0.61540562      9.75399805
  H     -6.81974251      1.04220581     11.83112485
  H     -6.80919034      3.31028404     12.86976453
  C     -3.94976554      2.38147674      8.34842899
  C     -3.31717973      2.17599824      7.34818141
  H     -2.75368753      1.99296295      6.45718499
  C      5.65335854    -11.17206181      4.18949135
  C      4.91870482    -10.02615910      3.88344899
  C      5.56833031     -8.80127155      3.73044655
  C      6.95256211     -8.72211907      3.88344899
  C      7.68730098     -9.86796719      4.18949135
  C      7.03759668    -11.09282553      4.34247870
  H      5.14114390    -12.13758634      4.31007895
  H      3.82748010    -10.08891585      3.76290125
  H      7.46500433     -7.75665920      3.76290125
  H      8.77848947     -9.80544424      4.31007895
  H      7.61665216    -11.99595441      4.58368790
  C      4.75736069     -7.53643578      3.39263206
  C      4.12480437     -6.54986385      3.12913675
  H      3.56133845     -5.67104937      2.89442147
  C    -12.41993822     -3.78048120     -2.44752989
  C    -11.17629299     -3.16859774     -2.28810526
  C    -10.01938370     -3.94550176     -2.22683874
  C    -10.10594491     -5.33425961     -2.32497808
  C    -11.34954534     -5.94623372     -2.48440425
  C    -12.50641571     -5.16925420     -2.54566214
  H    -13.33186124     -3.16793895     -2.49581264
  H    -11.10841642     -2.07376721     -2.21077198
  H     -9.19411444     -5.94702200     -2.27671848
  H    -11.41765328     -7.04100349     -2.56175590
  H    -13.48658482     -5.65154971     -2.67131426
  C     -8.64665275     -3.27004489     -2.05086241
  C     -7.57592259     -2.74318852     -1.91360088
  H     -6.62214198     -2.27387756     -1.79133161
  C      2.55792269     -7.35829567    -10.76831641
  C      2.55782983     -6.51132829     -9.65966079
  C      1.34980456     -6.08795677     -9.10540088
  C      0.14182157     -6.51144891     -9.65966079
  C      0.14181329     -7.35841630    -10.76831641
  C      1.34988913     -7.78174604    -11.32252165
  H      3.51027637     -7.69197240    -11.20515176
  H      3.51030688     -6.17766675     -9.22296982
  H     -0.81068879     -6.17788249     -9.22296982
  H     -0.81050707     -7.69218813    -11.20515176
  H      1.34992246     -8.44928869    -12.19631552
  C      1.34975788     -5.15306050     -7.88164892
  C      1.34972148     -4.42384140     -6.92712237
  H      1.34968904     -3.77427060     -6.07685313
  C     -6.06861046      7.46133866     -9.09935101
  C     -5.61449435      6.70174172     -8.02080472
  C     -4.35060786      6.94178169     -7.48159763
  C     -3.54073846      7.94135150     -8.02080472
  C     -3.99476776      8.70100033     -9.09935101
  C     -5.25867526      8.46089695     -9.63850492
  H     -7.06495407      7.27202046     -9.52432260
  H     -6.25320178      5.91382492     -7.59597359
  H     -2.54431949      8.13084901     -7.59597359
  H     -3.35625395      9.48893566     -9.52432260
  H     -5.61655551      9.05959848    -10.48856792
  C     -3.84939507      6.10329770     -6.29108083
  C     -3.45844909      5.44928017     -5.36247772
  H     -3.11020384      4.86669712     -4.53530044
  C     -0.84945200     10.28632561      8.36267268
  C     -0.49355570      9.28129062      7.46283184
  C     -1.18028437      8.06713768      7.46581525
  C     -2.22290194      7.85786683      8.36854825
  C     -2.57887063      8.86284223      9.26842701
  C     -1.89208821     10.07697541      9.26538026
  H     -0.30802740     11.24340253      8.36022439
  H      0.32842558      9.44660126      6.75131183
  H     -2.76448504      6.90082847      8.37117248
  H     -3.40078610      8.69775479      9.98000547
  H     -2.17261863     10.86907654      9.97461040
  C     -0.78740034      6.95779673      6.47253548
  C     -0.48095079      6.09251077      5.69777725
  H     -0.20797292      5.32173490      5.00764129
  C      0.30184123      7.77046848     10.10860641
  C      0.40379152      7.27629621      8.80788701
  C      1.43029526      7.71723134      7.97263925
  C      2.35490203      8.65230701      8.43794383
  C      2.25303341      9.14653689      9.73864774
  C      1.22649386      8.70554858     10.57383910
  H     -0.50739800      7.42280183     10.76693959
  H     -0.32527827      6.53915191      8.44139406
  H      3.16425453      9.00012726      7.77975604
  H      2.98196339      9.88365630     10.10533408
  H      1.14617329      9.09505625     11.59900313
  C      1.54278456      7.17172422      6.53689274
  C      1.63052622      6.74622866      5.41701044
  H      1.70868437      6.36720747      4.41944628

