#B3LYP/6-31+G(d) OPT FREQ

195, Energy =      0.00000000 au

0 1
 Au     -0.10152746     -0.02525218     -0.06489181
 Au      0.24887109     -0.07690916      2.69619166
 Au     -0.66866984     -2.43016655      1.21720253
 Au     -2.41449799     -0.09588919      1.48243080
 Au      2.07748707     -1.47286140      0.88660843
 Au     -0.74731924      2.30408097      1.31575645
 Au      2.02888023      1.45306411      0.94751795
 Au     -2.23193463     -1.50357175     -1.07729789
 Au      0.54426482     -2.35458737     -1.44553637
 Au     -2.28054270      1.42235856     -1.01638813
 Au      2.21144546      0.04538222     -1.61221097
 Au      0.46561839      2.37966318     -1.34698277
 Au     -0.45192601      0.02640481     -2.82597528
 Au      0.60411220     -0.12928005      5.49543367
 Au     -1.24365019     -4.86831716      2.51701559
 Au     -4.75943407     -0.16750243      3.05113762
 Au      4.28661587     -2.94047678      1.85125853
 Au     -1.40203593      4.66560580      2.71548545
 Au      4.18873044      2.95181093      1.97391934
 Au     -4.39178430     -3.00232189     -2.10369556
 Au     -4.48967221      2.88997548     -1.98103425
 Au      4.55638396      0.11699278     -3.18091428
 Au      1.04060229      4.81781478     -2.64679239
 Au     -0.80716712      0.07877570     -5.62521728
 Au     -0.32787737     -2.59068080      4.15744633
 Au     -2.15106716     -0.15296426      4.43442750
 Au      2.53997112     -1.59095420      3.81220247
 Au     -0.41001193      2.35335402      4.26036743
 Au      2.48920916      1.46462736      3.87581122
 Au     -3.10926275     -2.61050186      2.88990262
 Au      1.58176625     -4.04848896      2.26767882
 Au     -2.91860985     -4.08056010      0.21675002
 Au     -0.01939448     -4.96928500     -0.16780544
 Au     -3.19140073      2.33353244      2.99282238
 Au     -4.74180240     -1.64284107      0.49372464
 Au     -4.79256305      1.41273857      0.55733433
 Au      4.39885489      0.00681699      1.98604163
 Au      2.84845602     -3.96955738     -0.51305649
 Au      4.58950938     -1.46324005     -0.68711519
 Au      1.44887487      3.95112242      2.43420710
 Au     -3.05150937      3.91905357      0.38327843
 Au     -0.18366158      4.91878045      0.03803054
 Au      4.53874784      1.59233764     -0.62350254
 Au      2.71555780      4.03005432     -0.34652545
 Au     -1.65193085     -4.00162816     -2.56398784
 Au     -4.60191262     -0.05731945     -2.11581910
 Au     -2.69226396     -1.51512922     -4.00559586
 Au      2.98835056     -2.38403721     -3.12260086
 Au      0.20695804     -2.40385616     -4.39015220
 Au     -1.78482209      3.99798701     -2.39745763
 Au     -2.74302584      1.54045390     -3.94198459
 Au      2.90621104      2.55999865     -3.01968198
 Au      1.94801467      0.10246328     -4.56420991
 Au      0.12482353      2.54017923     -4.28722820
 Au      1.19898203     -4.71611428     -2.84526161
  C      8.38098975     -0.32773911      2.28461630
  C      7.62184367      0.59374035      3.00644999
  C      6.36467930      0.23380097      3.49199499
  C      5.86653130     -1.04753934      3.25579991
  C      6.62560390     -1.96908750      2.53397665
  C      7.88276758     -1.60906833      2.04846204
  H      9.37200129     -0.04388020      1.90191135
  H      8.01485546      1.60378018      3.19246832
  H      4.87550478     -1.33162470      3.63842703
  H      6.23280481     -2.97914090      2.34784816
  H      8.48106436     -2.33536520      1.47954840
  C      5.52676216      1.25098278      4.28876091
  C      4.87318678      2.04438461      4.91023834
  H      4.29099758      2.75112783      5.46383546
  C     -8.83264766     -9.41823627      2.34707565
  C     -8.02711101     -8.30959343      2.08536438
  C     -6.64711575     -8.46537089      1.95452477
  C     -6.07251757     -9.72968512      2.08536438
  C     -6.87797240    -10.83838741      2.34707565
  C     -8.25796885    -10.68252556      2.47790235
  H     -9.92048868     -9.29530956      2.45019580
  H     -8.48041666     -7.31303495      1.98227831
  H     -4.98465469     -9.85284831      1.98227831
  H     -6.42489841    -11.83499817      2.45019580
  H     -8.89282537    -11.55633278      2.68417173
  C     -5.75799655     -7.24160022      1.66564365
  C     -5.06448356     -6.28705908      1.44031637
  H     -4.44671890     -5.43677685      1.23960026
  C      7.83353895      0.87890215    -10.89006653
  C      7.02533161      1.14008866     -9.78324516
  C      6.19076890      0.14303507     -9.27810978
  C      6.16429651     -1.11522024     -9.87966221
  C      6.97246781     -1.37650116    -10.98648762
  C      7.80700869     -0.37938748    -11.49156640
  H      8.49138478      1.66496305    -11.28817447
  H      7.04644885      2.13212577     -9.30926417
  H      5.50650009     -1.90146143     -9.48170467
  H      6.95151166     -2.36842603    -11.46060649
  H      8.44398816     -0.58528047    -12.36391618
  C      5.29867648      0.43138906     -8.05638026
  C      4.60284439      0.65630517     -7.10343122
  H      3.98301393      0.85665503     -6.25456719
  C     11.95448090      3.71663374      3.90724561
  C     10.66011419      3.28123514      3.62173919
  C      9.62783364      4.20848695      3.47900346
  C      9.88974514      5.57113196      3.62173919
  C     11.18407960      6.00662642      3.90724561
  C     12.21631245      5.07930521      4.04996726
  H     12.76814670      2.98558283      4.01974159
  H     10.45399180      2.20694089      3.50928039
  H      9.07619794      6.30238808      3.50928039
  H     11.39042051      7.08082887      4.01974159
  H     13.23646296      5.42250512      4.27499093
  C      8.19910858      3.72783403      3.16385687
  C      7.08470300      3.35292475      2.91804252
  H      6.09201739      3.01896460      2.69907703
  C     12.65565836     -2.18909374     -2.86296165
  C     11.35233205     -1.76564349     -2.60123385
  C     10.32744116     -2.70279345     -2.47038598
  C     10.60570133     -4.06338988     -2.60123385
  C     11.90899639     -4.48693632     -2.86296165
  C     12.93383864     -3.54971738     -2.99379662
  H     13.46349752     -1.45024084     -2.96608831
  H     11.13332167     -0.69296090     -2.49814127
  H      9.79798349     -4.80244695     -2.49814127
  H     12.12822492     -5.55952504     -2.96608831
  H     13.96105112     -3.88350025     -3.20007902
  C      8.88882579     -2.23532915     -2.18148661
  C      7.76670578     -1.87070698     -1.95614510
  H      6.76714833     -1.54591035     -1.75541631
  C     -4.36322104     -2.71890582    -12.38006898
  C     -3.62853643     -2.48013938    -11.21830303
  C     -3.63452479     -1.21191452    -10.63749119
  C     -4.37512340     -0.18237877    -11.21830303
  C     -5.10983926     -0.42104902    -12.38006898
  C     -5.10379905     -1.68931021    -12.96082353
  H     -4.35842146     -3.71869265    -12.83783101
  H     -3.04480714     -3.29198548    -10.76069230
  H     -4.38006708      0.81752600    -10.76069230
  H     -5.69361582      0.39061697    -12.83783101
  H     -5.68285764     -1.87745757    -13.87647664
  C     -2.82355081     -0.94841335     -9.35511518
  C     -2.19099109     -0.74288243     -8.35486187
  H     -1.62752215     -0.55980045     -7.46386033
  C      1.70119574     -6.59094321    -11.31549956
  C      1.70121040     -5.81843075    -10.15373558
  C      0.49323889     -5.43211984     -9.57292474
  C     -0.71479785     -5.81822675    -10.15373558
  C     -0.71491365     -6.59073919    -11.31549956
  C      0.49310844     -6.97701202    -11.89625312
  H      2.65350706     -6.89541097    -11.77326081
  H      2.65372980     -5.51422443     -9.69612563
  H     -1.66726586     -5.51385958     -9.69612563
  H     -1.66727637     -6.89504613    -11.77326081
  H      0.49305703     -7.58587255    -12.81190467
  C      0.49331089     -4.57940813     -8.29055091
  C      0.49336705     -3.91429298     -7.29029930
  H      0.49341708     -3.32182444     -6.39929928
  C     12.41593823     -3.22919684      0.28081100
  C     11.03984414     -3.15869800      0.06202797
  C     10.29003204     -4.32984735     -0.04735014
  C     10.91614290     -5.57153739      0.06202797
  C     12.29223181     -5.64213723      0.28081100
  C     13.04197864     -4.47093391      0.39017832
  H     13.00690965     -2.30590695      0.36701645
  H     10.54658054     -2.17966475     -0.02414899
  H     10.32534267     -6.49499295     -0.02414899
  H     12.78568265     -6.62102319      0.36701645
  H     14.12655377     -4.52653781      0.56261353
  C      8.77108004     -4.25197385     -0.28884637
  C      7.58629745     -4.19123252     -0.47721344
  H      6.53092169     -4.13712561     -0.64500628
  C      9.58617399     -0.06395970     -9.26668053
  C      8.66932087      0.16156707     -8.23955392
  C      7.86635938     -0.88222896     -7.77964606
  C      7.98012429     -2.15157254     -8.34674125
  C      8.89694856     -2.37719615     -9.37387235
  C      9.69987926     -1.33334058     -9.83372731
  H     10.21909519      0.75894706     -9.62914162
  H      8.57989586      1.16235790     -7.79271790
  H      7.34727779     -2.97465869     -7.98442088
  H      8.98653766     -3.37786634     -9.82083518
  H     10.42249142     -1.51112907    -10.64326535
  C      6.85433803     -0.63323543     -6.64588466
  C      6.06496136     -0.43902047     -5.76155075
  H      5.36180366     -0.26601847     -4.97380742
  C    -12.53842985      3.13412666      2.11216425
  C    -11.22159344      2.78947899      1.80617260
  C    -10.86906754      1.44854795      1.65319551
  C    -11.83322957      0.45217346      1.80617260
  C    -13.15009158      0.79672328      2.11216425
  C    -13.50253974      2.13768625      2.26512624
  H    -12.81620474      4.19122049      2.23273187
  H    -10.46176350      3.57520991      1.68564483
  H    -11.55566583     -0.60502708      1.68564483
  H    -13.91005334      0.01118882      2.23273187
  H    -14.54042269      2.40928391      2.50629548
  C     -9.41550813      1.06817430      1.31543699
  C     -8.28173176      0.77148284      1.05198534
  H     -7.27179111      0.50719724      0.81730896

