195
Energy =      0.00000000 au
 Au     -0.00000027     -0.00000021     -0.00000207
 Au     -0.00000027     -0.00000021      2.78370580
 Au      0.00000072     -2.48982370      1.24491098
 Au     -2.36796282     -0.76939892      1.24491098
 Au      2.36796228     -0.76939892      1.24491098
 Au     -1.46348100      2.01430989      1.24491098
 Au      1.46348206      2.01430872      1.24491098
 Au     -1.46348161     -2.01431220     -1.24491135
 Au      1.46348107     -2.01431220     -1.24491135
 Au     -2.36796442      0.76939967     -1.24491135
 Au      2.36796488      0.76939662     -1.24491135
 Au      0.00000133      2.48982517     -1.24491135
 Au     -0.00000027     -0.00000021     -2.78370994
 Au     -0.00000027     -0.00000021      5.60588488
 Au      0.00000173     -5.01405688      2.50702889
 Au     -4.76865092     -1.54943083      2.50702889
 Au      4.76865038     -1.54943083      2.50702889
 Au     -2.94718722      4.05645802      2.50702889
 Au      2.94718991      4.05645567      2.50702889
 Au     -2.94718845     -4.05646224     -2.50702543
 Au     -4.76865415      1.54943276     -2.50702543
 Au      4.76865561      1.54942661     -2.50702543
 Au      0.00000296      5.01406026     -2.50702543
 Au     -0.00000027     -0.00000021     -5.60588902
 Au     -0.00000027     -2.60015485      4.20713395
 Au     -2.47289428     -0.80349218      4.20713395
 Au      2.47289374     -0.80349218      4.20713395
 Au     -1.52833282      2.10356908      4.20713395
 Au      1.52833228      2.10356908      4.20713395
 Au     -2.47288939     -3.40364632      2.60015373
 Au      2.47288885     -3.40364632      2.60015373
 Au     -1.52832980     -4.70372283      0.00000511
 Au      1.52832926     -4.70372283      0.00000511
 Au     -4.00122485      1.30007614      2.60015197
 Au     -4.00122633     -2.90705846     -0.00000179
 Au     -4.94578612      0.00000132     -0.00000065
 Au      4.00122431      1.30007614      2.60015197
 Au      4.00122579     -2.90705846     -0.00000179
 Au      4.94578558      0.00000132     -0.00000065
 Au      0.00000137      4.20713560      2.60015291
 Au     -4.00122569      2.90705892      0.00000335
 Au     -1.52833191      4.70372172     -0.00000074
 Au      4.00122515      2.90705892      0.00000335
 Au      1.52833137      4.70372172     -0.00000074
 Au     -0.00000287     -4.20713771     -2.60015431
 Au     -4.00122884     -1.30007568     -2.60015041
 Au     -1.52833330     -2.10356706     -4.20713914
 Au      4.00122830     -1.30007568     -2.60015041
 Au      1.52833276     -2.10356706     -4.20713914
 Au     -2.47289157      3.40364784     -2.60015326
 Au     -2.47289546      0.80349567     -4.20713665
 Au      2.47289103      3.40364784     -2.60015326
 Au      2.47289492      0.80349567     -4.20713665
 Au     -0.00000027      2.60015737     -4.20713628
 Au      2.94718791     -4.05646224     -2.50702543
  C     11.81173123     -3.87285476     -4.40690982
  C     10.49491752     -3.52815761     -4.10087623
  C     10.14244900     -2.18721388     -3.94787817
  C     11.10664572     -1.19087617     -4.10087623
  C     12.42348504     -1.53547547     -4.40690982
  C     12.77587581     -2.87645113     -4.55989278
  H     12.08946089     -4.92995859     -4.52749397
  H      9.73506023     -4.31385954     -3.98033193
  H     10.82912722     -0.13366563     -3.98033193
  H     13.18347415     -0.74997001     -4.52749397
  H     13.81374088     -3.14808779     -4.80109508
  C      8.68891464     -1.80678560     -3.61007335
  C      7.55515782     -1.51005154     -3.34658559
  H      6.54523458     -1.24572799     -3.11187704
  C      4.19616966      6.75030402    -10.33343700
  C      3.69842770      6.06507173     -9.22475278
  C      4.42689377      5.01250828     -8.67047857
  C      5.65308175      4.64506347     -9.22475278
  C      6.15090553      5.33023632    -10.33343700
  C      5.42237400      6.38279571    -10.88765654
  H      3.62182595      7.58002516    -10.77028361
  H      2.73174667      6.35500362     -8.78805055
  H      6.22761705      3.81533948     -8.78805055
  H      7.11752462      5.04048576    -10.77028361
  H      5.81470469      6.92284240    -11.76147294
  C      3.87743300      4.25617062     -7.44669505
  C      3.44885360      3.66622724     -6.49214387
  H      3.06708539      3.14071990     -5.64185271
  C     -6.92385972    -10.40403283      4.28090675
  C     -6.06113828     -9.35116960      3.97486465
  C     -6.56416560     -8.05914547      3.82186234
  C     -7.92984779     -7.81982356      3.97486465
  C     -8.79264746     -8.87262269      4.28090675
  C     -8.28953849    -10.16462696      4.43389397
  H     -6.52720290    -11.42249483      4.40149425
  H     -4.98457834     -9.54018950      3.85431700
  H     -8.32673816     -6.80139936      3.85431700
  H     -9.86919856     -8.68383922      4.40149425
  H     -8.96952862    -10.99442245      4.67510296
  C     -5.61183658     -6.89701342      3.48404813
  C     -4.86901992     -5.99055040      3.22055304
  H     -4.20733676     -5.18309500      2.98583796
  C     -9.52798978      8.49787319     -3.49704121
  C     -8.66517015      7.44507593     -3.19104898
  C     -7.29948732      7.68441017     -3.03807160
  C     -6.79647934      8.97644478     -3.19104898
  C     -7.65922074     10.02930615     -3.49704121
  C     -9.02490013      9.78988793     -3.65000350
  H    -10.60454137      8.30907998     -3.61760906
  H     -9.06204528      6.42664346     -3.07052098
  H     -5.71991891      9.16547442     -3.07052098
  H     -7.26257916     11.04777641     -3.61760906
  H     -9.70490600     10.61968195     -3.89117319
  C     -6.34713626      6.52228018     -2.70031244
  C     -5.60430242      5.61581877     -2.43686028
  H     -4.94260394      4.80836480     -2.20218346
  C     -5.42202547     -6.19452958     10.15435265
  C     -4.83994786     -5.52790312      9.07580463
  C     -5.45882116     -4.40006308      8.53659666
  C     -6.65973887     -3.93873460      9.07580463
  C     -7.24189266     -4.60529453     10.15435265
  C     -6.62295257     -5.73313496     10.69350743
  H     -4.93407084     -7.08359744     10.57932493
  H     -3.89321754     -5.89185530      8.65097281
  H     -7.14788733     -3.04965049      8.65097281
  H     -8.18858076     -4.24153223     10.57932493
  H     -7.08175070     -6.25851457     11.54357181
  C     -4.81627245     -3.66426675      7.34607794
  C     -4.31508444     -3.09034560      6.41747332
  H     -3.86863825     -2.57911048      5.59029472
  C     -8.14063778     -2.84055905     -9.96786822
  C     -7.39272585     -2.42471123     -8.86597468
  C     -6.24910208     -3.13073549     -8.49257546
  C     -5.85326643     -4.25259488     -9.22094224
  C     -6.60111391     -4.66851922    -10.32285064
  C     -7.74473302     -3.96243619    -10.69618810
  H     -9.04214012     -2.28391625    -10.26212173
  H     -7.70506244     -1.54026703     -8.29200093
  H     -4.95176164     -4.80941039     -8.92685526
  H     -6.28897455     -5.55289903    -10.89694487
  H     -8.33417909     -4.29021941    -11.56465825
  C     -5.42358039     -2.67167373     -7.27627938
  C     -4.77967346     -2.31360555     -6.32756843
  H     -4.20609669     -1.99464704     -5.48247958
  C     -7.18099296      0.42041978    -11.36430084
  C     -6.44145405      0.77717461    -10.23634729
  C     -5.61897068     -0.16294091     -9.61547978
  C     -5.53591670     -1.45981439    -10.12242530
  C     -6.27541770     -1.81666287    -11.25037408
  C     -7.09788356     -0.87648293    -11.87118834
  H     -7.82932332      1.16160345    -11.85364460
  H     -6.50716431      1.79963273     -9.83696886
  H     -4.88762391     -2.20118961     -9.63322104
  H     -6.20986247     -2.83902237    -11.64990678
  H     -7.68074085     -1.15769839    -12.76019012
  C     -4.80267661      0.23090252     -8.37042908
  C     -4.16596722      0.53810040     -7.39928952
  H     -3.59880185      0.81174487     -6.53422181
  C    -12.38688994     -2.91125941     -3.03282116
  C    -11.08355144     -2.48783751     -2.77110813
  C    -10.05868023     -3.42501002     -2.64026764
  C    -10.33697225     -4.78560065     -2.77110813
  C    -11.64027949     -5.20911873     -3.03282116
  C    -12.66510206     -4.27187725     -3.16364874
  H    -13.19471358     -2.17238875     -3.13594200
  H    -10.86451596     -1.41515949     -2.66802137
  H     -9.52926991     -5.52467548     -2.66802137
  H    -11.85953312     -6.28170288     -3.13594200
  H    -13.69232413     -4.60563778     -3.36991951
  C     -8.62005142     -2.95757701     -2.35138458
  C     -7.49792092     -2.59297925     -2.12605578
  H     -6.49835413     -2.26820436     -1.92533833
  C     -4.30416645     -3.02531481    -12.54578789
  C     -3.59799120     -2.97080150    -11.34378296
  C     -3.27314556     -1.73650044    -10.78097860
  C     -3.65438986     -0.55665549    -11.42003355
  C     -4.36056747     -0.61106774    -12.62204167
  C     -4.68537710     -1.84541665    -13.18478516
  H     -4.56018480     -3.99837734    -12.98934931
  H     -3.29759894     -3.90110856    -10.84026054
  H     -3.39846712      0.41655651    -10.97663361
  H     -4.66104803      0.31907566    -13.12571568
  H     -5.24195448     -1.88834183    -14.13215413
  C     -2.49365662     -1.67638354     -9.45418440
  C     -1.88565524     -1.62949236     -8.41928490
  H     -1.34406226     -1.58772283     -7.49742137
  C     -4.30407787      8.43995212     -9.15297386
  C     -3.84995919      7.68035847     -8.07442634
  C     -2.58607413      7.92040464     -7.53521863
  C     -1.77620875      8.91997737     -8.07442634
  C     -2.23024062      9.67962292     -9.15297386
  C     -3.49414669      9.43951334     -9.69212838
  H     -5.30042034      8.25062904     -9.57794593
  H     -4.48866346      6.89243937     -7.64959472
  H     -0.77979092      9.10947977     -7.64959472
  H     -1.59172998     10.46756054     -9.57794593
  H     -3.85202896     10.03821228    -10.54219236
  C     -2.08485851      7.08192427     -6.34470048
  C     -1.69391032      6.42790957     -5.41609630
  H     -1.34566309      5.84532905     -4.58891808
