195
Energy =      0.00000000 au
 Au     -0.00000027     -0.00000021     -0.00000207
 Au     -0.00000027     -0.00000021      2.78370580
 Au      0.00000072     -2.48982370      1.24491098
 Au     -2.36796282     -0.76939892      1.24491098
 Au      2.36796228     -0.76939892      1.24491098
 Au     -1.46348100      2.01430989      1.24491098
 Au      1.46348206      2.01430872      1.24491098
 Au     -1.46348161     -2.01431220     -1.24491135
 Au      1.46348107     -2.01431220     -1.24491135
 Au     -2.36796442      0.76939967     -1.24491135
 Au      2.36796488      0.76939662     -1.24491135
 Au      0.00000133      2.48982517     -1.24491135
 Au     -0.00000027     -0.00000021     -2.78370994
 Au     -0.00000027     -0.00000021      5.60588488
 Au      0.00000173     -5.01405688      2.50702889
 Au     -4.76865092     -1.54943083      2.50702889
 Au      4.76865038     -1.54943083      2.50702889
 Au     -2.94718722      4.05645802      2.50702889
 Au      2.94718991      4.05645567      2.50702889
 Au     -2.94718845     -4.05646224     -2.50702543
 Au     -4.76865415      1.54943276     -2.50702543
 Au      4.76865561      1.54942661     -2.50702543
 Au      0.00000296      5.01406026     -2.50702543
 Au     -0.00000027     -0.00000021     -5.60588902
 Au     -0.00000027     -2.60015485      4.20713395
 Au     -2.47289428     -0.80349218      4.20713395
 Au      2.47289374     -0.80349218      4.20713395
 Au     -1.52833282      2.10356908      4.20713395
 Au      1.52833228      2.10356908      4.20713395
 Au     -2.47288939     -3.40364632      2.60015373
 Au      2.47288885     -3.40364632      2.60015373
 Au     -1.52832980     -4.70372283      0.00000511
 Au      1.52832926     -4.70372283      0.00000511
 Au     -4.00122485      1.30007614      2.60015197
 Au     -4.00122633     -2.90705846     -0.00000179
 Au     -4.94578612      0.00000132     -0.00000065
 Au      4.00122431      1.30007614      2.60015197
 Au      4.00122579     -2.90705846     -0.00000179
 Au      4.94578558      0.00000132     -0.00000065
 Au      0.00000137      4.20713560      2.60015291
 Au     -4.00122569      2.90705892      0.00000335
 Au     -1.52833191      4.70372172     -0.00000074
 Au      4.00122515      2.90705892      0.00000335
 Au      1.52833137      4.70372172     -0.00000074
 Au     -0.00000287     -4.20713771     -2.60015431
 Au     -4.00122884     -1.30007568     -2.60015041
 Au     -1.52833330     -2.10356706     -4.20713914
 Au      4.00122830     -1.30007568     -2.60015041
 Au      1.52833276     -2.10356706     -4.20713914
 Au     -2.47289157      3.40364784     -2.60015326
 Au     -2.47289546      0.80349567     -4.20713665
 Au      2.47289103      3.40364784     -2.60015326
 Au      2.47289492      0.80349567     -4.20713665
 Au     -0.00000027      2.60015737     -4.20713628
 Au      2.94718791     -4.05646224     -2.50702543
  C    -12.79632415     -2.42908545     -1.77403515
  C    -11.49298824     -2.00565969     -1.51231553
  C    -10.46811457     -2.94282905     -1.38147175
  C    -10.74640155     -4.30342039     -1.51231553
  C    -12.04970621     -4.72694234     -1.77403515
  C    -13.07453124     -3.78970400     -1.90486602
  H    -13.60414974     -1.69021726     -1.87715859
  H    -11.27395672     -0.93298111     -1.40922618
  H     -9.93869728     -5.04249275     -1.40922618
  H    -12.26895588     -5.79952705     -1.87715859
  H    -14.10175129     -4.12346757     -2.11114198
  C     -9.02948860     -2.47539178     -1.09258142
  C     -7.90736032     -2.11079070     -0.86724695
  H     -6.90779550     -1.78601285     -0.66652444
  C      1.38209558     12.87192850      2.85123271
  C      1.42229406     11.49778664      3.08911765
  C      0.38186687     10.68211786      2.64418143
  C     -0.69879827     11.24041725      1.96136580
  C     -0.73908554     12.61454835      1.72343365
  C      0.30138803     13.43015475      2.16840521
  H      2.20232667     13.51481863      3.20202620
  H      2.27437067     11.05799079      3.62743598
  H     -1.51917216     10.59768939      1.61046819
  H     -1.59102983     13.05453983      1.18515748
  H      0.26967036     14.51318902      1.98089609
  C      0.42628760      9.16532383      2.90678873
  C      0.46093578      7.98222447      3.11162242
  H      0.49179954      6.92834808      3.29408334
  C     11.90372249     -3.37298838     -5.09166404
  C     10.67168943     -2.85819462     -4.68724722
  C      9.80795361     -3.63865256     -3.91873023
  C     10.17608958     -4.93388466     -3.55455681
  C     11.40810189     -5.44876531     -3.95892620
  C     12.27178733     -4.66823853     -4.72744696
  H     12.58452175     -2.75765476     -5.69748556
  H     10.38179176     -1.83707846     -4.97451484
  H      9.49541862     -5.54941994     -2.94871448
  H     11.69819215     -6.46981390     -3.67178471
  H     13.24281373     -5.07401070     -5.04617192
  C      8.44802708     -3.07036695     -3.47235459
  C      7.38728437     -2.62710416     -3.12418159
  H      6.44240034     -2.23225635     -2.81403747
  C      0.48365238      9.58173321      9.10900266
  C      0.55921655      8.68372622      8.04394655
  C     -0.60672510      8.13342090      7.51148371
  C     -1.84827205      8.48100834      8.04394655
  C     -1.92393701      9.37900685      9.10900266
  C     -0.75794124      9.92927213      9.64141298
  H      1.40283729     10.01547348      9.52865882
  H      1.53813545      8.40992985      7.62442909
  H     -2.76762295      8.04737188      7.62442909
  H     -2.90270962      9.65293331      9.52865882
  H     -0.81753733     10.63703862     10.48084362
  C     -0.52326052      7.14219097      6.33585758
  C     -0.45815814      6.36903161      5.41886919
  H     -0.40016652      5.68031989      4.60203803
  C     -4.18953793      7.37709389     -9.94915651
  C     -3.69170292      6.69190205     -8.84048907
  C     -4.42003942      5.63924452     -8.28622325
  C     -5.64619086      5.27166518     -8.84048907
  C     -6.14410769      5.95679756     -9.94915651
  C     -5.41570573      7.00945103    -10.50336766
  H     -3.61529636      8.20688919    -10.38599652
  H     -2.72505072      6.98194001     -8.40379345
  H     -6.22062402      4.44186699     -8.40379345
  H     -7.11069797      5.66694094    -10.38599652
  H     -5.80810975      7.54946583    -11.37717085
  C     -3.87047594      4.88295153     -7.06245824
  C     -3.44181642      4.29304299     -6.10792151
  H     -3.05997686      3.76756668     -5.25764320
  C      0.08943738     -6.74345854    -11.21392534
  C      0.08957945     -5.97090490    -10.05218876
  C      1.29762932     -5.58481846     -9.47139161
  C      2.50558769     -5.97119105    -10.05218876
  C      2.50554676     -6.74374471    -11.21392534
  C      1.29744633     -7.12979304    -11.79466520
  H     -0.86293569     -7.04774933    -11.67167579
  H     -0.86287821     -5.66648911     -9.59458960
  H      3.45811744     -5.66700089     -9.59458960
  H      3.45784772     -7.04826109    -11.67167579
  H      1.29737421     -7.73868604    -12.71029516
  C      1.29773032     -4.73206128     -8.18904803
  C      1.29780910     -4.06691066     -7.18882001
  H      1.29787927     -3.47441052     -6.29784100
  C     -8.10054419      9.65724414     -3.58775178
  C     -7.29499032      8.54861276     -3.32604496
  C     -5.91499716      8.70441069     -3.19520757
  C     -5.34041830      9.96873393     -3.32604496
  C     -6.14589035     11.07742476     -3.58775178
  C     -7.52588470     10.92154243     -3.71857626
  H     -9.18838355      9.53430130     -3.69087018
  H     -7.74828075      7.55204718     -3.22296064
  H     -4.25255708     10.09191325     -3.22296064
  H     -5.69283158     12.07404262     -3.69087018
  H     -8.16075478     11.79534062     -3.92484214
  C     -5.02585895      7.48065267     -2.90633136
  C     -4.33233113      6.52612140     -2.68100790
  H     -3.71455328      5.67584795     -2.48029520
  C     12.44234912      3.94845805      0.95497707
  C     11.12553831      3.52055739      0.78356718
  C     10.84049142      2.15777448      0.69787273
  C     11.87210969      1.22279172      0.78356718
  C     13.18895175      1.65059619      0.95497707
  C     13.47391807      3.01340610      1.04066307
  H     12.66692654      5.02277003      1.02251644
  H     10.31252010      4.25790697      0.71605013
  H     11.64775217      0.14838644      0.71605013
  H     14.00209303      0.91345136      1.02251644
  H     14.51178308      3.35062078      1.17576085
  C      9.38695715      1.68550391      0.50866773
  C      8.25320039      1.31713286      0.36108782
  H      7.24327721      0.98899681      0.22962720
  C     12.87406033      0.48130756     -3.98085542
  C     11.49397367      0.61549487     -3.82649998
  C     10.77170736     -0.35664030     -3.13436045
  C     11.42935732     -1.46298985     -2.59653172
  C     12.80944128     -1.59726416     -2.75083566
  C     13.53164089     -0.62507887     -3.44299333
  H     13.44331545      1.24771029     -4.52649109
  H     10.97584314      1.48779487     -4.25061675
  H     10.86027775     -2.22954486     -2.05083637
  H     13.32775573     -2.46944684     -2.32681876
  H     14.61936377     -0.73087373     -3.56462924
  C      9.24834692     -0.20847416     -2.96400884
  C      8.06012575     -0.09290457     -2.83113459
  H      7.00168698      0.01004204     -2.71277340
  C     -0.32568923     11.54894096      5.74727986
  C     -0.51283777     10.40716919      4.96766219
  C     -1.59744330     10.32916983      4.09398062
  C     -2.49496470     11.39282301      3.99980098
  C     -2.30789913     12.53463603      4.77937813
  C     -1.22326133     12.61255846      5.65304151
  H      0.52934577     11.61031001      6.43596832
  H      0.19490134      9.56883905      5.04215699
  H     -3.35010388     11.33166657      3.31115127
  H     -3.01548532     13.37305095      4.70504763
  H     -1.07579174     13.51246928      6.26748609
  C     -1.80397509      9.06884096      3.23344843
  C     -1.96506989      8.08578442      2.56223330
  H     -2.10856925      7.21010136      1.96433104
