110
Energy = -11923.13371445 au
 Ni     -0.06549990     -3.67808000     -2.42685000
 Ni     -1.39181000     -0.22731400     -1.19539000
 Ni      0.40801600     -4.12006000      0.21659800
 Ni     -0.51420700      4.45468000     -0.45477700
 Ni     -1.20326000      2.35093000     -2.05588000
 Ni     -3.12873000      0.47813100      0.65944100
 Ni     -1.01485000     -0.92574900      1.35004000
 Ni     -0.22281800      3.67007000      2.57293000
 Ni      0.36224000     -1.00732000     -3.16962000
 Ni      3.30018000     -0.53362800     -0.76860200
 Ni      0.71839200     -1.64228000     -0.59215800
 Ni      2.54924000     -2.37456000     -2.60308000
 Ni      3.64526000      2.23885000     -1.58153000
 Ni      1.90525000     -0.46883500      3.73484000
 Ni      1.38524000      0.23606400      1.20039000
 Ni      2.73843000      0.34963200     -3.32356000
 Ni      1.24988000      3.45341000     -2.00804000
 Ni     -2.17800000     -2.04221000     -2.98691000
 Ni      3.70817000     -1.26117000      2.04070000
 Ni     -1.78439000     -3.00023000     -0.42246600
 Ni      3.73210000      1.30345000      1.00935000
 Ni      1.01239000      0.89502500     -1.33955000
 Ni     -2.03426000      0.52916200     -3.70750000
 Ni     -3.77356000     -1.48646000     -1.08624000
 Ni      1.98070000      2.15415000      3.15229000
 Ni     -0.36671700      1.03357000      3.28254000
 Ni      3.01922000     -2.86168000     -0.01593530
 Ni     -1.46279000     -3.66761000      2.12429000
 Ni     -2.78682000      3.14538000     -0.32395200
 Ni      1.61996000      2.82761000      0.40684400
 Ni     -2.40928000      2.45116000      2.37526000
 Ni     -2.79425000     -0.31167000      3.31518000
 Ni      0.40993600      1.78379000     -3.88071000
 Ni     -0.71068400      1.67408000      0.54464900
 Ni     -3.55187000     -2.25630000      1.53868000
 Ni     -0.73038300     -1.51024000      4.13403000
 Ni     -3.64715000      1.19475000     -1.89019000
 Ni      1.16229000     -2.26898000      1.97259000
  C      1.38481000      5.69763000     -0.57419000
  O      1.38763000      6.98634000     -0.40776400
  C     -1.99622000      3.36951000     -4.40414000
  O     -2.49305000      4.54103000     -4.66407000
  C     -1.76502000      5.53427000     -1.68749000
  O     -1.70075000      6.70848000     -2.22108000
  C     -0.10095800     -4.74149000      3.74746000
  O      0.08814230     -5.86811000      4.34534000
  C     -0.14439000      3.60966000      4.56289000
  O     -0.31411700      4.51884000      5.46545000
  C     -4.25748000     -0.36955900      5.20275000
  O     -4.82281000     -1.25423000      5.95011000
  C     -3.31691000     -3.04648000      4.23256000
  O     -3.61193000     -4.31195000      4.54037000
  C      5.24682000     -2.15110000     -0.50579900
  O      6.47237000     -2.21645000     -0.11485500
  C     -5.17139000     -1.14554000      2.67840000
  O     -6.28475000     -0.53419000      2.51674000
  C     -0.50699200      3.34335000     -4.77085000
  O     -0.17943200      4.26440000     -5.59596000
  C      4.85753000     -2.34769000     -1.93762000
  O      5.83273000     -2.59620000     -2.74359000
  C     -3.12745000      2.31762000     -4.34510000
  O     -4.11514000      2.72261000     -5.08416000
  C      5.42690000      0.91368300     -1.31993000
  O      6.64102000      0.87781700     -1.72021000
  C     -2.91939000      4.68214000     -1.94023000
  O     -3.81350000      5.06106000     -2.78741000
  C     -2.40587000     -5.31941000      0.93607000
  O     -2.40784000     -6.58380000      0.78516900
  C      1.53071000     -1.98949000     -4.87750000
  O      1.49033000     -2.38285000     -6.11647000
  C      4.66517000     -0.11174400      3.79098000
  O      5.71589000     -0.15008100      4.49433000
  C      0.50021000     -1.07285000      6.15637000
  O      0.17507900     -0.68508600      7.34216000
  C     -4.19094000     -1.26374000     -4.01095000
  O     -5.05835000     -1.59703000     -4.87307000
  C     -1.94115000      5.01092000      2.78883000
  O     -2.27810000      6.15510000      3.24922000
  C     -1.47701000     -5.19581000     -2.74505000
  O     -1.87057000     -6.04277000     -3.62679000
  C      3.52792000     -2.87761000      3.51977000
  O      4.27847000     -3.67424000      4.18370000
  C     -1.16993000      0.65244600      5.32394000
  O     -1.68769000      0.88674700      6.48277000
  C      4.03094000      4.16708000     -1.16105000
  O      5.22195000      4.66505000     -1.24043000
  C     -3.54902000     -4.64397000      1.64795000
  O     -4.58564000     -5.32950000      1.96647000
  C      3.83946000      1.35771000     -4.89684000
  O      4.24961000      1.31615000     -6.11560000
  C      0.48884300      2.51995000      5.45478000
  O      0.18817000      2.19949000      6.65127000
  C      2.98306000      5.10760000     -0.57410900
  O      3.61023000      6.16297000     -0.12879200
  C     -4.63506000     -2.38997000      3.43108000
  O     -5.62894000     -2.99310000      4.00600000
  C      4.07075000      2.40807000     -3.97154000
  O      4.64880000      3.48846000     -4.36614000
  C     -5.57658000      1.35396000     -0.52906100
  O     -6.83051000      1.59525000     -0.58185100
  C     -2.29255000     -2.41985000      5.14635000
  O     -2.56798000     -2.69479000      6.32130000
  C      1.79616000     -4.49925000     -4.16406000
  O      1.90801000     -4.90194000     -5.38451000
  C      1.96329000      2.50458000      5.13518000
  O      2.43255000      3.12613000      6.14504000
  C     -2.02258000     -5.26205000     -1.41173000
  O     -2.85590000     -6.25766000     -1.34070000
  C     -4.11024000     -3.73155000     -0.60104200
  O     -4.78913000     -4.86840000     -0.79375400
