110
Energy = -12494.37520314 au
 Ni      0.16473900     -3.55428000     -2.41641000
 Ni     -1.42132000     -0.28052300     -1.22811000
 Ni      0.46035200     -4.43258000     -0.04858080
 Ni     -0.78996800      4.48429000     -0.34712500
 Ni     -1.21416000      2.37106000     -2.03936000
 Ni     -3.03543000      0.57957400      0.59557300
 Ni     -0.88690300     -0.86114100      1.31792000
 Ni      0.06287790      3.62199000      2.20689000
 Ni      0.38980400     -1.05653000     -3.25398000
 Ni      3.28893000     -0.66146600     -0.73771900
 Ni      0.80291400     -1.70893000     -0.57928800
 Ni      2.74174000     -2.39665000     -2.66714000
 Ni      3.47769000      1.80703000     -1.59520000
 Ni      1.91160000     -0.29908900      3.88379000
 Ni      1.41373000      0.17294100      1.20742000
 Ni      2.83027000      0.20174400     -3.33334000
 Ni      1.20962000      3.39342000     -2.51782000
 Ni     -1.94879000     -2.25183000     -3.16897000
 Ni      3.67571000     -1.25305000      2.31763000
 Ni     -1.65933000     -2.92319000     -0.62370000
 Ni      3.69622000      1.25839000      1.03638000
 Ni      0.98930300      0.85468600     -1.36202000
 Ni     -1.97212000      0.33365700     -3.65159000
 Ni     -4.11256000     -1.19797000     -1.18797000
 Ni      2.07944000      2.14216000      2.86575000
 Ni     -0.29810300      1.14455000      3.16579000
 Ni      3.16190000     -3.23223000      0.15289800
 Ni     -1.12271000     -3.30533000      2.04337000
 Ni     -2.93837000      3.28838000     -0.01923600
 Ni      1.62620000      2.87623000      0.37342400
 Ni     -2.37668000      2.35315000      2.69938000
 Ni     -2.61000000     -0.11426300      3.15486000
 Ni      0.79998200      1.46595000     -4.00617000
 Ni     -0.73511000      1.69600000      0.53596700
 Ni     -3.26574000     -1.93785000      1.34136000
 Ni     -0.49039300     -1.31862000      4.04975000
 Ni     -3.94167000      1.35481000     -1.96312000
 Ni      1.30392000     -2.43904000      2.14112000
  C     -5.32180000     -0.66758800     -3.63934000
  O     -5.81976000     -1.09039000     -4.76243000
  C     -0.76399200     -0.42932500      5.90595000
  O     -1.62447000     -0.31175100      6.84613000
  C      4.13869000      0.47616400      4.41164000
  O      4.65658000      1.17752000      5.35392000
  C      1.98836000     -3.32734000      3.87217000
  O      1.89577000     -4.38710000      4.59772000
  C      2.21516000     -5.37269000     -1.09186000
  O      2.59778000     -6.56264000     -1.36893000
  C      1.77816000     -3.54698000     -4.30912000
  O      1.79035000     -4.38764000     -5.28098000
  C     -2.54241000      2.35188000      4.82543000
  O     -3.33830000      2.54494000      5.80667000
  C      2.84091000      2.34558000     -4.76548000
  O      3.67304000      2.30064000     -5.73601000
  C     -4.78900000      0.74481600     -3.73117000
  O     -5.40468000      1.32457000     -4.70124000
  C      5.38122000     -0.69288200     -1.89442000
  O      6.55032000     -0.89248000     -1.37696000
  C      0.60527700      0.06755520      5.80383000
  O      1.11181000      0.62018700      6.84871000
  C     -5.85711000      0.11932500     -0.70524800
  O     -6.98808000     -0.33227100     -0.28940100
  C     -1.06698000      2.37899000      4.90630000
  O     -0.51513700      2.85705000      5.95952000
  C     -2.23802000     -1.71983000     -5.51095000
  O     -2.71675000     -1.69418000     -6.69546000
  C     -1.24066000     -2.68530000     -5.07783000
  O     -0.70963500     -3.56733000     -5.84764000
  C     -0.68436900      4.08228000     -3.67836000
  O     -0.71903700      4.61775000     -4.84387000
  C      2.54442000     -2.32082000     -4.89814000
  O      3.51746000     -2.19131000     -5.73065000
  C      3.46223000     -3.99113000      2.10676000
  O      3.68267000     -5.20468000      2.49963000
  C     -5.78094000      1.48466000     -1.19530000
  O     -6.69891000      2.37936000     -1.20207000
  C     -5.57536000     -1.59445000     -2.49735000
  O     -6.57930000     -2.39258000     -2.53751000
  C      4.93125000     -0.41009400      3.59083000
  O      6.18409000     -0.58176700      3.84593000
  C      2.01695000      4.67648000      1.92120000
  O      2.61686000      5.89175000      2.07402000
  C     -1.42042000      5.49826000     -1.79284000
  O     -1.53272000      6.76812000     -1.95274000
  C      5.02467000      0.65719700     -2.60862000
  O      6.11751000      1.08994000     -3.13679000
  C     -2.34626000      5.61852000      0.82323000
  O     -2.22891000      6.88435000      1.01641000
  C      4.95760000     -2.25352000     -2.29249000
  O      5.57891000     -2.66644000     -3.32788000
  C     -2.01655000      4.78972000     -3.04676000
  O     -2.66423000      5.52722000     -3.92005000
  C      0.90489000     -0.09264330     -5.56540000
  O      0.67869100      0.24338600     -6.79522000
  C      3.49283000     -3.26347000      3.52836000
  O      4.45631000     -3.22810000      4.35372000
  C      4.85494000     -2.88203000     -0.86036200
  O      6.07869000     -3.12317000     -0.54226900
  C      2.45880000      3.63865000     -4.12776000
  O      2.91457000      4.72833000     -4.62515000
  C     -3.57910000      4.95759000      1.18780000
  O     -4.53415000      5.43867000      1.89061000
  C     -1.42860000     -5.40814000     -0.90398400
  O     -1.73348000     -6.62334000     -0.61967100
  C     -2.27450000     -4.70432000     -1.94483000
  O     -3.22427000     -5.35939000     -2.51301000
  C     -3.40289000      3.75881000     -2.39237000
  O     -4.44919000      4.29160000     -3.04221000
  C      1.27332000     -1.55871000     -5.61374000
  O      1.08666000     -2.28626000     -6.61913000
