110
Energy = -11894.66110190 au
 Ni      0.02219850     -3.51041000     -2.20457000
 Ni     -1.43396000     -0.22494600     -1.17582000
 Ni      0.59381600     -4.44008000      0.08825740
 Ni     -0.44839800      4.33000000     -0.32045400
 Ni     -1.23203000      2.38135000     -2.03550000
 Ni     -3.27681000      0.57156900      0.69412900
 Ni     -0.99378200     -0.85366900      1.29550000
 Ni     -0.05934500      3.51747000      2.21534000
 Ni      0.32129900     -0.97556700     -3.10356000
 Ni      3.29824000     -0.55110400     -0.72167100
 Ni      0.74339600     -1.62989000     -0.56088300
 Ni      2.69180000     -2.39059000     -2.38302000
 Ni      3.34099000      2.03130000     -1.34139000
 Ni      1.84176000     -0.31578800      3.75867000
 Ni      1.42926000      0.26464500      1.16324000
 Ni      2.90887000      0.09340040     -3.14871000
 Ni      1.09033000      3.53843000     -2.15604000
 Ni     -2.33410000     -2.03730000     -2.91271000
 Ni      3.82112000     -1.07887000      1.78390000
 Ni     -1.77023000     -2.88435000     -0.45582800
 Ni      3.89643000      1.41357000      1.01634000
 Ni      0.96781500      0.90069400     -1.32903000
 Ni     -1.93238000      0.31890300     -3.69668000
 Ni     -3.95825000     -1.33469000     -1.14854000
 Ni      2.08194000      2.14835000      3.05994000
 Ni     -0.30104300      1.04029000      3.11473000
 Ni      2.88505000     -3.13685000     -0.05045100
 Ni     -1.25906000     -3.39028000      2.11073000
 Ni     -3.05245000      3.22662000     -0.09451640
 Ni      1.74824000      2.96940000      0.46053500
 Ni     -2.69601000      2.46488000      2.46948000
 Ni     -2.84549000     -0.03652890      3.09526000
 Ni      0.42241200      1.66874000     -3.97206000
 Ni     -0.76528700      1.66354000      0.52459600
 Ni     -3.34334000     -2.13937000      1.42922000
 Ni     -0.53991200     -1.43791000      3.86685000
 Ni     -3.76889000      1.19834000     -1.75098000
 Ni      1.16211000     -2.22744000      1.88164000
  C     -4.74105000     -1.66962000     -3.49138000
  O     -5.93200000     -2.07068000     -3.75719000
  C      4.86993000     -0.37167900     -3.20162000
  O      5.89110000     -0.37377800     -3.97833000
  C      3.06237000     -5.25642000     -1.13460000
  O      3.92499000     -5.89886000     -1.83269000
  C     -1.30399000     -5.55870000     -1.01030000
  O     -1.88889000     -6.67798000     -1.13591000
  C      6.03164000     -0.90219100      1.49348000
  O      7.22735000     -0.54679700      1.80553000
  C      0.25188600     -0.74383600     -5.53685000
  O      0.43708100     -1.32373000     -6.67023000
  C     -3.68444000     -4.34359000     -0.08946440
  O     -4.22686000     -5.43385000      0.30141500
  C     -4.83108000      1.03767000      2.85409000
  O     -5.88537000      1.12185000      3.58542000
  C     -2.17718000      3.82829000     -3.65941000
  O     -2.45612000      4.01113000     -4.90863000
  C     -1.88644000      2.96596000      4.73135000
  O     -2.27145000      3.37886000      5.89110000
  C     -3.46039000      3.99396000     -2.75648000
  O     -4.48135000      4.20866000     -3.51810000
  C      1.98072000     -5.95788000     -0.50594100
  O      1.99368000     -7.24635000     -0.53713700
  C      4.68830000      0.03088250      3.81026000
  O      5.75299000      0.06781630      4.53849000
  C     -5.37117000      1.70660000      1.55294000
  O     -6.60497000      1.49706000      1.24163000
  C     -3.22169000      4.86861000     -1.54974000
  O     -3.49959000      6.07598000     -1.86641000
  C     -0.07550280      3.22410000     -5.33240000
  O     -0.69223100      3.51235000     -6.42101000
  C      4.08037000      3.88991000      0.53421900
  O      4.70720000      4.98388000      0.74983500
  C     -3.41072000     -3.69834000      3.47517000
  O     -4.07695000     -4.32602000      4.36435000
  C     -5.80977000      0.91284100     -1.10762000
  O     -6.88412000      1.60341000     -1.24312000
  C     -5.88673000     -0.32639100     -0.34584100
  O     -6.93930000     -0.67366100      0.29261000
  C     -2.96576000      4.83553000      2.30628000
  O     -3.60559000      5.80973000      2.84751000
  C      0.24793000     -0.36987600      5.92684000
  O      0.02517490     -0.05328580      7.13051000
  C      5.68399000      0.67185700     -0.40727100
  O      6.93265000      0.61955500     -0.48144100
  C      3.10506000      4.27672000      3.17121000
  O      3.98123000      5.10054000      3.61519000
  C      5.35315000     -1.35856000     -2.12722000
  O      6.60288000     -1.24380000     -1.79714000
  C      5.64072000     -1.89770000      0.55448800
  O      6.55094000     -2.62598000      0.02693460
  C     -0.89321000      4.71825000     -3.27790000
  O     -1.31225000      5.93367000     -3.35432000
  C      1.93736000      5.72028000     -0.21800900
  O      2.98190000      6.26317000     -0.76302200
  C     -4.91674000      3.11153000      1.13969000
  O     -5.98226000      3.79155000      1.36825000
  C      0.61554200      6.37485000     -0.45961300
  O      0.75941900      7.62446000     -0.24760500
  C      2.01748000      5.15360000      1.21250000
  O      2.59598000      6.12245000      1.83390000
  C      1.06927000      1.94772000      5.18062000
  O      1.03007000      2.45750000      6.43787000
  C      4.72869000     -2.74523000     -2.27745000
  O      5.71338000     -3.37652000     -2.81823000
  C     -3.72741000     -4.07465000     -1.53662000
  O     -4.34358000     -4.94274000     -2.24723000
  C     -3.96327000     -1.03722000     -4.54920000
  O     -4.48989000     -0.87386000     -5.70272000
  C      0.21042800      4.39261000     -4.43952000
  O      0.53925200      5.52364000     -4.99554000
