#B3LYP/6-31+G(d) OPT FREQ

110, Energy = -12353.73657336 au

0 1
 Ni      0.23381000     -3.79443000     -2.45312000
 Ni     -1.47805000     -0.21101200     -1.27355000
 Ni      0.63043700     -4.25754000      0.00488567
 Ni     -0.71736600      4.38547000     -0.24336500
 Ni     -1.33178000      2.56465000     -2.21388000
 Ni     -3.41478000      0.58876700      0.65618100
 Ni     -1.02724000     -0.84846400      1.32444000
 Ni     -0.07220760      3.93268000      2.19891000
 Ni      0.22861800     -1.03175000     -3.33847000
 Ni      2.99283000     -0.48077200     -0.71359900
 Ni      0.68683900     -1.62827000     -0.58675100
 Ni      2.29900000     -2.39832000     -2.67069000
 Ni      3.19854000      1.98899000     -1.45339000
 Ni      1.65599000     -0.25154000      3.97896000
 Ni      1.37826000      0.28770200      1.20529000
 Ni      2.59214000      0.10349700     -3.38959000
 Ni      1.04905000      3.47472000     -2.13020000
 Ni     -2.37273000     -2.32184000     -3.18759000
 Ni      3.43090000     -1.08104000      1.83038000
 Ni     -1.68707000     -2.73656000     -0.54172800
 Ni      3.77252000      1.69449000      1.14212000
 Ni      0.87508700      0.91364300     -1.41690000
 Ni     -2.17922000      0.46966400     -3.88038000
 Ni     -4.08446000     -1.18984000     -1.17879000
 Ni      2.03324000      2.33319000      3.10227000
 Ni     -0.26643800      1.04427000      3.04804000
 Ni      2.79171000     -3.00185000      0.01877630
 Ni     -1.28991000     -3.38826000      2.21127000
 Ni     -3.02152000      3.16973000     -0.28033000
 Ni      1.65516000      2.97351000      0.55789500
 Ni     -2.46544000      2.32075000      2.28953000
 Ni     -2.98103000     -0.05491090      3.24024000
 Ni      0.54389400      1.63371000     -4.29197000
 Ni     -0.75877000      1.70564000      0.46271800
 Ni     -3.57590000     -1.88089000      1.32933000
 Ni     -0.74664100     -1.63305000      3.89514000
 Ni     -3.56816000      1.27511000     -1.97452000
 Ni      1.15994000     -2.43076000      2.17007000
  C     -0.81001900      2.74634000     -5.51801000
  O     -0.67138900      2.90263000     -6.79594000
  C     -2.33195000      2.63544000     -5.01065000
  O     -3.12024000      2.99454000     -5.92936000
  C      3.44589000      4.14574000      2.76805000
  O      3.96514000      4.71409000      3.81632000
  C      1.89766000     -5.77596000     -1.10150000
  O      2.75463000     -6.65080000     -0.95852100
  C      2.15025000      4.69308000      1.96896000
  O      2.53886000      5.89937000      1.75812000
  C     -3.05205000     -2.90901000     -5.12326000
  O     -4.23995000     -3.23889000     -5.54563000
  C      4.30488000      3.51737000      1.64668000
  O      5.16023000      4.41268000      1.29327000
  C      1.11751000     -5.64512000     -2.35063000
  O      1.16463000     -6.57660000     -3.20211000
  C     -2.86991000     -4.25089000     -2.44756000
  O     -3.62713000     -5.18168000     -2.86962000
  C     -0.99013300      4.68228000     -3.61094000
  O     -1.86478000      5.43674000     -4.17829000
  C      1.22939000     -4.50519000      3.32861000
  O      1.13720000     -5.76028000      3.57075000
  C      1.67755000     -0.42134800     -5.86929000
  O      0.78309200     -0.83412400     -6.71042000
  C     -5.56107000     -0.76769400     -2.46276000
  O     -6.82375000     -0.61122100     -2.67414000
  C     -5.07098000      1.19244000      1.69721000
  O     -6.22206000      1.68735000      1.50445000
  C     -0.00801444      3.91205000     -4.62409000
  O      0.44803700      4.79438000     -5.45912000
  C     -5.56977000     -0.14432900      2.46302000
  O     -6.57303000     -0.68072200      3.10931000
  C     -1.53340000     -2.78971000     -5.15344000
  O     -2.06628000     -3.12439000     -6.36112000
  C     -4.94810000     -1.26700000     -3.78252000
  O     -5.64312000     -2.23837000     -4.28338000
  C     -2.80338000      3.02596000     -3.54419000
  O     -3.64026000      4.01529000     -3.74893000
  C     -1.72047000      5.81273000     -1.65686000
  O     -1.84246000      7.09150000     -1.62816000
  C     -4.50756000      3.94037000     -1.76827000
  O     -5.60307000      4.20335000     -2.34038000
  C     -3.89971000     -0.37533500     -4.47632000
  O     -4.47152000     -0.16253400     -5.62301000
  C      1.13768000      1.90802000      5.22113000
  O      0.97936400      2.84707000      6.08992000
  C     -5.38719000     -0.98223500      0.97174500
  O     -6.61228000     -1.11203000      0.63586500
  C      1.95316000     -3.50655000      4.00894000
  O      2.67737000     -3.63709000      5.05975000
  C     -1.17737000      5.57234000      2.64934000
  O     -1.36779000      6.35975000      3.65634000
  C     -1.93077000     -3.39232000      4.46346000
  O     -2.60322000     -3.98547000      5.41658000
  C      1.26437000     -3.40894000     -4.35189000
  O      1.97658000     -4.12676000     -5.15309000
  C      1.87273000      1.11221000     -5.86385000
  O      2.33922000      1.25249000     -7.04923000
  C      1.13422000      0.51731500      5.73670000
  O      0.94839000      0.09014810      6.93209000
  C     -1.77291000      5.76766000      1.35214000
  O     -2.62490000      6.69650000      1.11970000
  C      2.91284000     -0.98317700     -5.23276000
  O      3.68955000     -1.24588000     -6.21171000
  C     -0.41348800      5.68660000     -2.53197000
  O      0.26016400      6.62976000     -3.09442000
  C     -0.01457740     -2.70311000     -5.11616000
  O      0.23908100     -2.81739000     -6.38745000
  C     -3.35254000      5.02257000     -1.58039000
  O     -3.98586000      6.08314000     -1.97972000
  C     -4.83607000      0.21872400      3.83702000
  O     -5.51496000      0.76943700      4.76387000

