#B3LYP/6-31+G(d) OPT FREQ

110, Energy = -10203.98694541 au

0 1
 Ni      0.05613110     -3.49512000     -2.23313000
 Ni     -1.36816000     -0.22934800     -1.15971000
 Ni      0.48534800     -4.18474000      0.24183900
 Ni     -0.46889300      4.15774000     -0.21171500
 Ni     -1.13099000      2.23397000     -1.90366000
 Ni     -3.05469000      0.50123600      0.65982500
 Ni     -0.94717300     -0.86252100      1.28500000
 Ni     -0.06135910      3.47490000      2.25015000
 Ni      0.29558200     -0.96261900     -2.99985000
 Ni      3.04819000     -0.49412900     -0.65782200
 Ni      0.71360300     -1.60970000     -0.53208100
 Ni      2.41793000     -2.31699000     -2.37585000
 Ni      3.29461000      1.99057000     -1.43255000
 Ni      1.81249000     -0.39695700      3.63856000
 Ni      1.36815000      0.22961000      1.15907000
 Ni      2.63841000      0.15825800     -3.17762000
 Ni      1.18918000      3.39829000     -2.08773000
 Ni     -2.04709000     -2.09588000     -2.90256000
 Ni      3.50124000     -1.14691000      1.80142000
 Ni     -1.60355000     -2.71747000     -0.41987900
 Ni      3.74402000      1.36731000      1.04703000
 Ni      0.94772400      0.86259400     -1.28649000
 Ni     -1.81083000      0.39044600     -3.65154000
 Ni     -3.72816000     -1.36887000     -1.05502000
 Ni      2.03958000      2.10005000      2.90379000
 Ni     -0.29458000      0.97528500      2.99060000
 Ni      2.81496000     -3.00159000      0.11229100
 Ni     -1.16803000     -3.39353000      2.08001000
 Ni     -2.82406000      2.98179000     -0.08642590
 Ni      1.61339000      2.72499000      0.41800000
 Ni     -2.41437000      2.33182000      2.41892000
 Ni     -2.64606000     -0.14715700      3.13884000
 Ni      0.52667700      1.53068000     -3.80077000
 Ni     -0.71414900      1.60895000      0.53338800
 Ni     -3.29054000     -2.00375000      1.42494000
 Ni     -0.52406400     -1.53410000      3.75579000
 Ni     -3.52595000      1.13702000     -1.78941000
 Ni      1.14760000     -2.25976000      1.91871000
  C     -4.74931000     -3.70871000     -0.60358300
  O     -5.54760000     -4.72356000     -0.63397300
  C     -1.56324000     -1.52260000     -5.60605000
  O     -1.62973000     -1.88765000     -6.86001000
  C      2.94315000     -0.59118700     -5.45994000
  O      3.23543000     -1.05542000     -6.68724000
  C     -5.51705000      2.61293000     -0.67797200
  O     -6.84298000      3.05686000     -0.43876200
  C     -6.01202000      0.90659000     -1.38683000
  O     -7.27307000      0.98610500     -1.21816000
  C      0.26002800     -1.60514000     -5.36604000
  O      0.51675400     -2.17798000     -6.62870000
  C     -1.21219000     -5.39048000     -3.33334000
  O     -1.75207000     -6.59755000     -3.55595000
  C     -0.39724100      3.34956000     -5.12102000
  O     -0.90120400      4.12405000     -6.11483000
  C     -3.50808000      4.59826000      2.62799000
  O     -4.03870000      5.69758000      3.04527000
  C     -2.20597000      2.55136000      4.93943000
  O     -2.51064000      2.90492000      6.13431000
  C      1.65719000      5.15349000      2.89771000
  O      2.26831000      6.39264000      3.28987000
  C     -1.94106000     -5.31699000     -1.34896000
  O     -2.56835000     -6.47058000     -1.46106000
  C      2.92421000      4.32247000     -3.59794000
  O      3.53190000      5.13697000     -4.45385000
  C      3.60171000     -4.14566000      2.34266000
  O      4.26115000     -5.03783000      3.01416000
  C     -2.76162000     -4.32540000     -3.76892000
  O     -3.54277000     -5.46149000     -4.17786000
  C     -5.46494000      1.21419000      0.59711500
  O     -6.82002000      1.33665000      1.02775000
  C      5.87249000     -0.76947300      0.69814000
  O      7.12569000     -1.00505000      0.46487100
  C      1.32740000      2.15149000      5.39468000
  O      1.38947000      2.45888000      6.64852000
  C      3.27756000      4.30265000      2.12450000
  O      3.99254000      5.49204000      2.40096000
  C      2.79174000      5.00791000      0.04227040
  O      3.59350000      6.04411000      0.14256900
  C      5.16108000     -1.55968000     -2.03416000
  O      6.41582000     -1.75263000     -2.29369000
  C     -0.32578400      2.91755000      4.93106000
  O     -0.44497000      3.48056000      6.23829000
  C      1.66659000     -6.01444000     -1.09772000
  O      2.17869000     -7.13907000     -1.47213000
  C      0.80653500     -5.66668000      2.31745000
  O      1.17788000     -6.68643000      3.03407000
  C     -3.59695000     -4.20814000     -1.96262000
  O     -4.28321000     -5.31989000     -2.19268000
  C      3.43989000      2.75857000     -4.28040000
  O      4.17945000      3.20571000     -5.27816000
  C     -2.66361000     -5.29424000      1.32525000
  O     -3.32682000     -6.39587000      1.21638000
  C     -3.64934000     -3.63576000      3.54615000
  O     -4.33350000     -4.25035000      4.45631000
  C     -5.07267000      0.87079400      2.97399000
  O     -6.32160000      1.05298000      3.25923000
  C      0.17915900     -4.40116000      4.06730000
  O      0.49343300     -5.34151000      4.94786000
  C      1.89297000     -4.38263000      3.12780000
  O      2.43333000     -5.16870000      4.03967000
  C      1.31647000      5.71198000      1.01718000
  O      1.92641000      6.99255000      1.19509000
  C     -0.18880100      4.59262000     -3.86669000
  O     -0.60466700      5.65251000     -4.52284000
  C      1.25227000      0.02749890     -5.75588000
  O      1.25856000     -0.18621500     -7.19546000
  C      4.61464000      3.72368000      1.01214000
  O      5.45614000      4.72167000      1.05139000
  C      5.81573000      0.89222300     -0.76417100
  O      7.07054000      0.73015900     -1.05232000

