#B3LYP/6-31+G(d) OPT FREQ

110, Energy = -12242.92358864 au

0 1
 Ni      0.05967530     -3.48640000     -2.41978000
 Ni     -1.43080000     -0.25033000     -1.24789000
 Ni      0.37899300     -4.46911000      0.11768500
 Ni     -0.48196200      4.23520000     -0.23920800
 Ni     -1.37246000      2.50469000     -2.17423000
 Ni     -3.36456000      0.52521200      0.73191700
 Ni     -1.00379000     -0.97174500      1.29303000
 Ni     -0.06356250      3.45478000      2.38046000
 Ni      0.24765700     -0.98763800     -3.05538000
 Ni      3.41429000     -0.57743800     -0.72035400
 Ni      0.79170500     -1.70018000     -0.52008200
 Ni      2.63474000     -2.53097000     -2.37303000
 Ni      3.34284000      2.25745000     -1.30905000
 Ni      1.72171000     -0.38471800      3.75517000
 Ni      1.41682000      0.32412400      1.21250000
 Ni      2.91188000      0.02451120     -3.07806000
 Ni      1.03321000      3.49245000     -2.22383000
 Ni     -2.27349000     -2.47867000     -3.44424000
 Ni      3.52280000     -1.06030000      1.74680000
 Ni     -1.77471000     -2.97255000     -0.42991000
 Ni      3.95921000      1.54588000      0.97609700
 Ni      1.02725000      0.93628700     -1.30504000
 Ni     -2.06344000      0.13946400     -3.92261000
 Ni     -3.75879000     -1.42792000     -1.25364000
 Ni      2.08330000      2.25242000      3.14860000
 Ni     -0.41120900      0.96970300      3.29757000
 Ni      2.82893000     -3.31786000     -0.01401620
 Ni     -1.07876000     -3.82980000      2.16272000
 Ni     -2.88027000      3.29614000      0.28365400
 Ni      1.65611000      3.02045000      0.59768800
 Ni     -2.53177000      2.51834000      2.73500000
 Ni     -2.80739000     -0.25913400      3.05226000
 Ni      0.37104000      1.63974000     -3.89491000
 Ni     -0.77011100      1.65239000      0.57635600
 Ni     -3.78856000     -2.21322000      1.75400000
 Ni     -0.48703300     -1.67639000      3.73035000
 Ni     -3.66577000      1.07241000     -2.15136000
 Ni      1.27371000     -2.39926000      2.06006000
  C     -0.44396800     -4.83035000      3.95867000
  O     -0.51809400     -4.94054000      5.23278000
  C      3.49915000      4.87507000     -0.05221180
  O      3.85769000      5.79953000     -0.87601300
  C     -2.29506000     -4.86094000      0.70013700
  O     -2.14165000     -6.13313000      0.54564600
  C     -2.89970000     -4.25460000     -3.39356000
  O     -2.89849000     -5.14500000     -4.33929000
  C      0.09279540     -6.38984000     -1.03023000
  O     -0.65853900     -7.42531000     -0.94155100
  C      4.34464000      3.57101000      0.28500600
  O      5.55459000      3.93667000      0.54088600
  C     -0.72139800     -3.66243000     -4.46649000
  O     -0.49099400     -4.14828000     -5.67272000
  C      2.16026000      4.98671000      0.66277400
  O      1.88191000      6.11447000      1.20902000
  C     -4.08362000     -2.62397000      3.70180000
  O     -5.30924000     -2.84322000      4.08931000
  C     -5.54006000     -1.26759000      1.51021000
  O     -6.66303000     -1.49312000      2.10272000
  C     -4.71250000     -3.64539000      0.94919000
  O     -5.98137000     -3.88486000      0.95494100
  C     -0.31708900      3.43334000     -4.63863000
  O     -0.65860100      3.97573000     -5.76800000
  C     -3.95718000      4.69013000      1.47738000
  O     -5.05677000      4.88479000      2.10963000
  C     -3.71487000     -4.13429000     -2.21348000
  O     -4.71272000     -4.92214000     -2.05966000
  C     -2.74571000      5.42439000      1.27655000
  O     -2.29913000      6.58767000      1.55426000
  C     -1.65747000     -1.47497000     -5.34775000
  O     -1.79497000     -1.82543000     -6.61374000
  C     -4.86011000      1.21606000      1.90347000
  O     -6.14920000      1.25585000      1.71180000
  C     -3.99850000     -1.80527000     -4.41256000
  O     -4.53514000     -2.74877000     -5.09868000
  C     -0.16658800      2.82111000      5.16795000
  O      0.15565100      3.98400000      5.72244000
  C     -1.61500000      2.42117000      4.69311000
  O     -2.41641000      2.40466000      5.69799000
  C     -3.86967000     -4.77896000      0.55004000
  O     -4.43896000     -5.82194000      0.04128850
  C     -3.07263000      4.13175000      4.29372000
  O     -3.56010000      5.30315000      4.28981000
  C      5.38084000      0.27588800      0.31195300
  O      6.72080000      0.35400800      0.10620400
  C      0.29790800     -5.38453000      2.88709000
  O      1.21061000     -6.26340000      2.68627000
  C     -4.89850000     -0.18245300     -3.35428000
  O     -6.17213000     -0.32344000     -3.35246000
  C      2.81370000     -5.05010000     -0.97812500
  O      3.64380000     -6.03630000     -1.16072000
  C      4.71208000     -2.63502000     -2.69295000
  O      5.26097000     -3.77554000     -2.95785000
  C     -0.59484300      4.93721000     -2.49698000
  O     -0.93311400      5.93384000     -3.31388000
  C     -2.96195000      3.33079000     -2.97651000
  O     -3.16468000      4.27581000     -3.86061000
  C      5.32927000     -1.52170000     -1.66780000
  O      6.41062000     -1.77189000     -1.02055000
  C     -3.01572000     -2.95014000      4.62148000
  O     -2.69679000     -3.52822000      5.70433000
  C     -4.05222000     -0.24747800     -4.71378000
  O     -4.11917000      0.41327600     -5.82685000
  C      2.91205000      4.07324000      2.78209000
  O      3.73724000      4.96689000      3.23692000
  C      0.80064000      1.56829000      5.08740000
  O      1.07021000      1.18216000      6.27944000
  C      1.86982000     -2.91391000      4.02535000
  O      2.32630000     -3.98958000      4.61898000
  C      4.94038000     -1.01990000     -3.18447000
  O      5.65326000     -0.56275600     -4.15597000

