#B3LYP/6-31+G(d) OPT FREQ

110, Energy = -10396.77675166 au

0 1
 Ni      0.08410590     -3.49126000     -2.23078000
 Ni     -1.36692000     -0.22798900     -1.16139000
 Ni      0.52523300     -4.20906000      0.23543200
 Ni     -0.50108200      4.17724000     -0.24390900
 Ni     -1.14854000      2.25472000     -1.91740000
 Ni     -3.02070000      0.49559600      0.65253600
 Ni     -0.94399800     -0.86076900      1.28483000
 Ni     -0.07672340      3.49514000      2.26435000
 Ni      0.29430000     -0.95368500     -2.98092000
 Ni      3.03922000     -0.49172500     -0.65825400
 Ni      0.71690900     -1.61166000     -0.53151800
 Ni      2.41754000     -2.34984000     -2.38444000
 Ni      3.30624000      1.98098000     -1.42948000
 Ni      1.84145000     -0.42979700      3.65134000
 Ni      1.37079000      0.22971300      1.16242000
 Ni      2.64052000      0.15530200     -3.14631000
 Ni      1.18063000      3.35707000     -2.05407000
 Ni     -2.07300000     -2.08288000     -2.90166000
 Ni      3.51444000     -1.15002000      1.84032000
 Ni     -1.58349000     -2.68873000     -0.41219100
 Ni      3.74089000      1.35460000      1.07974000
 Ni      0.94715800      0.86253100     -1.28578000
 Ni     -1.81049000      0.40238500     -3.65374000
 Ni     -3.72224000     -1.33425000     -1.08097000
 Ni      2.07231000      2.10476000      2.93880000
 Ni     -0.28800700      0.97707200      2.98892000
 Ni      2.82246000     -3.03394000      0.10166800
 Ni     -1.17238000     -3.36341000      2.04664000
 Ni     -2.81491000      3.01708000     -0.12041500
 Ni      1.60158000      2.71493000      0.42290200
 Ni     -2.41320000      2.35366000      2.38918000
 Ni     -2.63229000     -0.15443600      3.13436000
 Ni      0.53409300      1.50866000     -3.78717000
 Ni     -0.71399100      1.61181000      0.53280100
 Ni     -3.27914000     -1.98200000      1.42255000
 Ni     -0.52400000     -1.51771000      3.75544000
 Ni     -3.50119000      1.12289000     -1.82805000
 Ni      1.15222000     -2.25901000      1.92147000
  C     -2.17571000      5.18489000     -2.05819000
  O     -2.59128000      6.15894000     -2.81934000
  C     -2.40587000     -4.77349000     -2.88807000
  O     -3.07043000     -5.85039000     -3.09286000
  C     -3.91991000      4.88342000     -1.37520000
  O     -4.54308000      5.65851000     -2.04299000
  C     -1.63373000      5.42184000      2.66446000
  O     -1.98866000      6.67511000      3.06192000
  C     -0.35907100      3.06242000      4.95634000
  O     -0.67641900      3.51207000      6.10599000
  C      2.09844000      5.27389000      1.19454000
  O      2.72489000      6.37784000      1.22515000
  C      2.05171000      2.97019000     -5.17781000
  O      2.69758000      3.55834000     -6.11725000
  C      0.02042970     -0.01570130     -5.93511000
  O      0.14227600     -0.37610800     -7.15968000
  C      1.31227000     -5.88945000     -1.83887000
  O      1.66855000     -7.08921000     -2.30884000
  C      5.29787000     -0.96914600      3.56442000
  O      6.30555000     -0.90184700      4.34133000
  C     -5.11328000     -0.41841700     -3.46204000
  O     -6.15746000     -0.40036800     -4.19239000
  C      2.83059000     -5.36186000      1.43438000
  O      3.43929000     -6.23747000      2.15081000
  C      4.92873000     -2.66200000     -2.37235000
  O      6.15614000     -2.88731000     -2.66938000
  C      1.17339000     -5.78805000      2.03137000
  O      1.44505000     -6.70006000      2.83737000
  C      6.19351000      1.57776000      0.42238500
  O      7.43576000      1.36694000      0.18914100
  C      2.08330000     -6.17972000     -0.03897750
  O      2.56529000     -7.31865000     -0.33844400
  C      4.66996000     -2.67903000      3.42246000
  O      5.09881000     -3.54362000      4.27679000
  C      2.28362000     -3.87381000      3.49807000
  O      2.68559000     -4.90834000      4.11789000
  C      4.84239000      1.02326000      3.68292000
  O      5.85056000      1.16536000      4.42696000
  C      3.62613000     -5.06846000     -1.01525000
  O      4.26143000     -6.21583000     -1.33169000
  C      4.07813000      2.57749000      4.27334000
  O      4.90043000      2.93829000      5.17209000
  C      4.28132000      3.00052000     -3.52239000
  O      4.97605000      3.62583000     -4.40110000
  C     -3.76003000      0.11164500     -5.17105000
  O     -4.69670000     -0.05358670     -6.03194000
  C      5.60714000      0.56864800     -1.52653000
  O      6.83977000      0.38303600     -1.82190000
  C      2.62839000     -2.60351000      4.64362000
  O      3.19286000     -3.36901000      5.62847000
  C      2.30972000     -0.39839600     -5.61087000
  O      2.46521000     -0.78760100     -6.82323000
  C      2.70354000      4.61576000      2.83121000
  O      3.28801000      5.68045000      3.25877000
  C      4.11903000      3.90723000      1.81937000
  O      4.90731000      4.92224000      1.91230000
  C     -3.25002000      4.60472000      2.95925000
  O     -3.95322000      5.59869000      3.38027000
  C     -4.37829000     -1.93440000     -4.03380000
  O     -5.22194000     -2.28017000     -4.91466000
  C      4.36834000     -4.01144000      1.93370000
  O      5.03110000     -4.99654000      2.71346000
  C      1.29303000      2.56603000      5.28302000
  O      1.41017000      2.88585000      6.50367000
  C     -0.59881500      6.39789000     -1.67197000
  O     -0.93830100      7.38172000     -2.41947000
  C      3.47533000      0.33597200      5.41493000
  O      4.46109000      0.46798000      6.22478000
  C      2.65304000     -4.94428000     -2.78591000
  O      3.26384000     -5.96945000     -3.32175000
  C     -2.55033000      3.87029000     -3.32610000
  O     -3.04959000      4.60896000     -4.25623000

