#B3LYP/6-31+G(d) OPT FREQ

110, Energy = -10199.30865139 au

0 1
 Ni      0.07153150     -3.48086000     -2.23260000
 Ni     -1.36753000     -0.22847500     -1.15913000
 Ni      0.48724400     -4.16467000      0.21988700
 Ni     -0.48298000      4.17289000     -0.22395100
 Ni     -1.14129000      2.23713000     -1.89867000
 Ni     -3.04779000      0.49571100      0.65487400
 Ni     -0.94672300     -0.86159000      1.28534000
 Ni     -0.06666520      3.48280000      2.23002000
 Ni      0.29608200     -0.95902000     -2.97181000
 Ni      3.02534000     -0.49200100     -0.65364000
 Ni      0.71411000     -1.60876000     -0.53215900
 Ni      2.40642000     -2.32653000     -2.38799000
 Ni      3.28652000      1.98659000     -1.42413000
 Ni      1.81864000     -0.40115500      3.64413000
 Ni      1.36663000      0.22821300      1.15890000
 Ni      2.64331000      0.16669400     -3.15076000
 Ni      1.18079000      3.35878000     -2.05648000
 Ni     -2.06072000     -2.07944000     -2.89587000
 Ni      3.49098000     -1.14847000      1.81344000
 Ni     -1.59168000     -2.69918000     -0.41069800
 Ni      3.72155000      1.33998000      1.05242000
 Ni      0.94635300      0.86096200     -1.28485000
 Ni     -1.82717000      0.40412500     -3.63839000
 Ni     -3.72743000     -1.33068000     -1.06228000
 Ni      2.04240000      2.06435000      2.88595000
 Ni     -0.29428200      0.95358400      2.97376000
 Ni      2.81659000     -3.00392000      0.10797900
 Ni     -1.17971000     -3.37256000      2.05346000
 Ni     -2.82840000      2.99826000     -0.09595590
 Ni      1.58583000      2.68808000      0.40726700
 Ni     -2.41605000      2.32903000      2.37150000
 Ni     -2.63900000     -0.16149200      3.14902000
 Ni      0.53846000      1.52713000     -3.76341000
 Ni     -0.71461600      1.60871000      0.53170400
 Ni     -3.29606000     -1.98230000      1.43023000
 Ni     -0.53308300     -1.52708000      3.78305000
 Ni     -3.51686000      1.14631000     -1.80833000
 Ni      1.13632000     -2.23877000      1.90125000
  C     -5.20514000     -1.06175000     -3.24839000
  O     -6.17166000     -1.23571000     -4.04102000
  C      0.42855800     -4.90222000      3.41454000
  O      0.88025200     -5.82573000      4.18432000
  C      2.40577000     -5.13789000      1.98845000
  O      2.84166000     -6.03894000      2.77721000
  C     -2.68267000     -4.70414000     -2.48461000
  O     -3.41921000     -5.70034000     -2.73517000
  C     -1.71217000      0.03423450      5.78166000
  O     -1.83158000      0.40836000      7.00635000
  C     -0.84664300      6.34180000     -1.60452000
  O     -1.24381000      7.27885000     -2.36222000
  C     -1.27888000     -5.69770000     -1.70039000
  O     -1.82818000     -6.82227000     -1.85720000
  C     -3.13685000     -4.92957000      0.77377100
  O     -3.80571000     -6.01935000      0.63791500
  C     -5.14307000      2.70676000      1.35993000
  O     -6.33690000      2.95536000      1.70294000
  C      4.25079000     -4.80942000      1.15997000
  O      4.82083000     -5.79138000      1.83124000
  C     -3.79111000      3.88358000     -2.55675000
  O     -4.36009000      4.70986000     -3.34349000
  C      1.47316000      5.38483000      2.84711000
  O      2.12704000      6.39159000      3.15616000
  C     -5.63020000      2.11996000     -0.45901100
  O     -6.86685000      2.33402000     -0.23293700
  C      3.61253000      1.76768000     -4.80673000
  O      4.40472000      2.29041000     -5.75619000
  C      4.14624000     -3.61071000      2.64008000
  O      4.63319000     -4.42834000      3.50072000
  C     -0.47335800     -3.85102000      5.09247000
  O     -0.00756262     -4.73212000      5.90435000
  C      2.37274000      3.15574000     -4.83371000
  O      2.92977000      3.84745000     -5.73372000
  C     -4.70066000      0.70972200     -4.23772000
  O     -5.64192000      0.64672400     -4.99191000
  C      0.98446200      5.96837000      1.14211000
  O      1.59557000      7.08828000      1.20700000
  C     -4.05058000     -1.84736000      4.47746000
  O     -4.75739000     -2.43223000      5.37410000
  C      0.62949700      0.07182580      5.99075000
  O      0.52599800      0.45221800      7.21493000
  C     -2.27685000      5.09531000     -2.13998000
  O     -2.76066000      5.97475000     -2.89531000
  C      4.54604000      4.01674000     -0.49877600
  O      5.22402000      5.10037000     -0.35505900
  C      4.83954000     -2.66659000     -2.82057000
  O      6.07763000     -2.87078000     -3.10408000
  C     -3.70409000     -0.77858200     -5.09096000
  O     -4.59486000     -0.92323900     -5.94425000
  C     -5.91258000      2.76438000     -2.28641000
  O     -7.14850000      3.00927000     -2.13598000
  C      2.04775000     -2.62718000     -4.93804000
  O      2.17814000     -3.02184000     -6.15524000
  C     -5.70329000      0.35804800      0.52418000
  O     -6.93070000      0.53031600      0.73192700
  C      5.92495000      0.76747000     -0.23580200
  O      7.17240000      0.58130000     -0.48763900
  C     -3.18566000      5.09934000      1.63686000
  O     -3.72464000      6.20396000      2.01546000
  C     -2.19495000     -2.51003000      5.39741000
  O     -2.81429000     -3.09863000      6.31413000
  C     -6.22701000      0.17433200     -1.85851000
  O     -7.46276000      0.39650600     -1.57576000
  C     -5.53471000     -0.74280400      2.05253000
  O     -6.75123000     -0.64361500      2.42478000
  C     -4.11297000     -2.55707000     -4.23777000
  O     -5.04266000     -2.82547000     -5.04276000
  C      1.67462000     -5.63047000     -2.16740000
  O      2.18567000     -6.73829000     -2.57448000
  C      4.29529000      1.01482000      4.30694000
  O      5.26579000      1.18082000      5.13420000

