#B3LYP/6-31+G(d) OPT FREQ

110, Energy = -11755.59890320 au

0 1
 Ni      0.09435070     -3.44306000     -2.21447000
 Ni     -1.38314000     -0.18543500     -1.19458000
 Ni      0.66844400     -4.35107000      0.37208800
 Ni     -0.30995900      4.26691000     -0.25690000
 Ni     -1.21155000      2.45123000     -2.03484000
 Ni     -3.07150000      0.54649200      0.64297800
 Ni     -0.94369200     -0.84068300      1.28731000
 Ni     -0.14118100      3.68373000      2.36397000
 Ni      0.29498300     -0.92072600     -2.97673000
 Ni      3.23400000     -0.52989200     -0.65282200
 Ni      0.78092800     -1.62149000     -0.52291700
 Ni      2.59732000     -2.35358000     -2.36983000
 Ni      3.56576000      2.06653000     -1.30162000
 Ni      1.82277000     -0.30034500      3.74356000
 Ni      1.44954000      0.27908500      1.17095000
 Ni      2.84138000      0.14867000     -3.08404000
 Ni      1.14949000      3.51577000     -2.12064000
 Ni     -2.24913000     -2.00416000     -3.00339000
 Ni      3.63870000     -1.24029000      1.75832000
 Ni     -1.57125000     -2.67809000     -0.41523300
 Ni      4.10514000      1.48128000      1.06711000
 Ni      0.99608000      0.92625700     -1.30106000
 Ni     -1.92398000      0.58828000     -3.68507000
 Ni     -3.70986000     -1.30830000     -1.09253000
 Ni      2.21661000      2.32810000      3.05450000
 Ni     -0.26892700      1.01484000      2.99529000
 Ni      2.98895000     -3.17522000      0.18802300
 Ni     -1.16386000     -3.35164000      2.04233000
 Ni     -2.86486000      3.03688000     -0.19508700
 Ni      1.74135000      2.90609000      0.48831000
 Ni     -2.41968000      2.48616000      2.56873000
 Ni     -2.68476000     -0.18111200      3.21296000
 Ni      0.43832700      1.72975000     -3.81261000
 Ni     -0.70490700      1.68028000      0.53543300
 Ni     -3.30150000     -1.97747000      1.49638000
 Ni     -0.51277500     -1.49918000      3.75616000
 Ni     -3.63368000      1.22930000     -1.89847000
 Ni      1.20463000     -2.24330000      1.91050000
  C     -4.06414000     -2.02191000      4.16976000
  O     -4.69603000     -2.50722000      5.18278000
  C     -1.31005000      3.89364000      4.67777000
  O     -0.63160600      4.29603000      5.70622000
  C      1.58475000      5.76373000      0.25690900
  O      2.11680000      6.79350000      0.82309800
  C      1.65679000      2.00464000      5.44519000
  O      1.70427000      2.93641000      6.35141000
  C     -2.03798000      4.81866000      3.70548000
  O     -2.57395000      5.93333000      4.01553000
  C     -3.37339000      3.91858000     -2.47780000
  O     -3.84828000      4.84121000     -3.18455000
  C     -3.58802000      2.11593000     -4.59213000
  O     -4.60015000      2.57071000     -5.23941000
  C      1.60642000     -5.70620000      1.78041000
  O      1.40947000     -6.70243000      2.56496000
  C     -4.73726000     -0.62508200     -3.89844000
  O     -5.76296000     -0.13808600     -4.48359000
  C      3.12563000      4.19600000      3.25501000
  O      3.79892000      4.94076000      4.07224000
  C      4.60745000      3.73255000      0.21075900
  O      5.56238000      4.41345000      0.74368300
  C      4.62805000     -4.10018000     -2.21526000
  O      5.86494000     -4.32336000     -2.50229000
  C      1.26628000      4.69289000     -4.52709000
  O      1.38851000      5.75405000     -5.22114000
  C      3.83658000     -3.38625000      2.89857000
  O      4.46215000     -4.14420000      3.71508000
  C     -4.21046000     -1.91660000     -4.12723000
  O     -4.87614000     -2.64721000     -4.95308000
  C     -0.85601400      4.65119000     -3.22538000
  O     -1.40744000      5.77070000     -3.53138000
  C      6.02130000      1.17556000      0.54362100
  O      7.24085000      0.91669700      0.81321700
  C      5.38044000     -1.91559000      0.07547140
  O      6.43560000     -2.64863000      0.15337100
  C      2.09756000     -5.87170000     -0.82398900
  O      2.45326000     -7.09978000     -0.98193500
  C     -2.29443000      2.74073000     -4.71561000
  O     -2.42685000      3.76065000     -5.51341000
  C      4.93665000     -1.16582000     -3.16417000
  O      5.91845000     -1.95461000     -3.41931000
  C     -0.15429400      4.23097000     -4.51110000
  O     -0.59076500      4.39690000     -5.73083000
  C     -2.37208000      2.81276000      4.76868000
  O     -2.94476000      3.05635000      5.88855000
  C      5.81531000      1.05655000     -0.93219300
  O      6.74668000      1.59335000     -1.67005000
  C      3.76356000      4.46666000     -0.74643300
  O      4.00436000      5.70188000     -0.97999900
  C      4.76231000      1.49542000      3.44791000
  O      5.79107000      1.70556000      4.18548000
  C      5.68507000     -0.69920200     -0.77494700
  O      6.78278000     -0.84713700     -1.41467000
  C      5.17800000      0.23881900     -3.22728000
  O      6.31251000      0.66797400     -3.65260000
  C     -4.16592000      4.16610000      2.85164000
  O     -4.67820000      5.26918000      3.27628000
  C      1.36277000      0.70118200      5.85673000
  O      1.27695000      0.52912700      7.08360000
  C      0.65073700      6.01239000      2.69106000
  O      1.41787000      7.00631000      2.97874000
  C      2.90118000      4.62133000      1.90772000
  O      3.67519000      5.62320000      1.63316000
  C     -5.54195000      1.66227000     -0.42465100
  O     -6.81997000      1.81754000     -0.35993400
  C      2.91100000     -5.22533000      1.48251000
  O      3.92741000     -5.88965000      1.96034000
  C     -0.67224100      6.22666000      2.34007000
  O     -1.29557000      7.32847000      2.56018000
  C      1.19111000      6.13094000     -1.08221000
  O      1.60730000      7.25215000     -1.51564000

