110
Energy = -11807.61093997 au
 Ni      0.04103830     -3.85187000     -2.36618000
 Ni     -1.38502000     -0.23769100     -1.18210000
 Ni      0.68945800     -4.52487000      0.24645200
 Ni     -0.55357200      4.35770000     -0.32597400
 Ni     -1.22982000      2.48241000     -2.07902000
 Ni     -3.24873000      0.60163700      0.68405400
 Ni     -0.96930500     -0.85379600      1.28942000
 Ni      0.06893840      3.66070000      2.21566000
 Ni      0.34687000     -1.09864000     -3.12882000
 Ni      3.34997000     -0.58677700     -0.71613800
 Ni      0.76978200     -1.68919000     -0.58811500
 Ni      2.77745000     -2.56020000     -2.39096000
 Ni      3.26159000      2.01192000     -1.42569000
 Ni      2.01558000     -0.27239700      3.76934000
 Ni      1.44804000      0.23866200      1.15875000
 Ni      2.69066000      0.16278300     -3.36781000
 Ni      1.04498000      3.55285000     -2.20191000
 Ni     -1.96642000     -2.37755000     -3.05333000
 Ni      3.91994000     -1.10054000      1.86414000
 Ni     -1.61239000     -2.84539000     -0.45635500
 Ni      3.98136000      1.26054000      1.18889000
 Ni      0.95816100      0.88955200     -1.33811000
 Ni     -1.78920000      0.41834800     -3.66511000
 Ni     -3.80846000     -1.33318000     -0.98793000
 Ni      2.10438000      2.07886000      2.87930000
 Ni     -0.26071300      0.99015900      3.14040000
 Ni      3.03801000     -3.18369000     -0.01404760
 Ni     -1.17210000     -3.40108000      1.98576000
 Ni     -2.96492000      3.01059000     -0.01251820
 Ni      1.72958000      2.85570000      0.43968800
 Ni     -2.52736000      2.40851000      2.39765000
 Ni     -2.59471000     -0.14802000      3.21233000
 Ni      0.51994200      1.62484000     -3.96543000
 Ni     -0.72046400      1.66739000      0.53627800
 Ni     -3.42939000     -1.92294000      1.42091000
 Ni     -0.52683800     -1.38898000      3.93905000
 Ni     -3.53945000      1.15974000     -1.73445000
 Ni      1.19397000     -2.22349000      1.88788000
  C      2.38726000     -5.30202000      1.77738000
  O      3.43063000     -5.86148000      2.27416000
  C     -0.18798800      4.88771000     -3.66133000
  O      0.02279990      6.15105000     -3.69080000
  C      5.28986000     -1.24796000     -1.57249000
  O      6.42000000     -0.64524500     -1.70690000
  C     -0.01490670     -2.94695000     -4.72274000
  O      0.15276500     -3.35377000     -5.99924000
  C      4.86941000     -0.24464700      3.99233000
  O      5.70116000     -1.02830000      4.57645000
  C     -3.32208000      4.61985000      2.71446000
  O     -3.94598000      5.52000000      3.39235000
  C      1.31121000     -6.18113000     -0.70763500
  O      1.81064000     -7.36857000     -0.50147100
  C      1.85496000     -5.66860000     -2.02415000
  O      1.75429000     -6.38230000     -3.10488000
  C      1.07938000     -5.72013000      2.11949000
  O      0.81627800     -6.63930000      2.97779000
  C     -1.33289000     -5.46058000     -2.38372000
  O     -1.34809000     -6.74122000     -2.21719000
  C      4.80895000     -2.44117000     -2.35913000
  O      5.78761000     -3.15203000     -2.80459000
  C      5.98655000     -2.34232000      2.45833000
  O      7.25219000     -2.31685000      2.19685000
  C      3.56901000      4.41718000      0.85937200
  O      4.65867000      4.93785000      0.36188200
  C      1.31737000      5.88314000     -0.26981500
  O      1.72317000      7.07234000      0.01757220
  C     -5.00766000      2.63895000      1.41571000
  O     -5.93023000      3.21648000      2.09798000
  C     -1.31375000     -0.31889100      5.81066000
  O     -1.76464000     -0.38356000      7.01239000
  C     -2.45681000     -2.18694000     -5.40545000
  O     -2.17769000     -2.76588000     -6.52217000
  C     -0.17934600      0.61590000      5.57923000
  O      0.10550700      1.32158000      6.61636000
  C      5.36010000      0.74710400      2.88374000
  O      6.42899000      1.23695000      3.42737000
  C      3.13068000     -4.87504000     -1.62105000
  O      4.06137000     -5.80102000     -1.76014000
  C      0.13730400      3.98412000     -4.97458000
  O      0.54579600      4.80816000     -5.88851000
  C     -2.21407000      5.30580000     -1.65716000
  O     -2.54038000      6.35537000     -2.28299000
  C      1.39641000      5.45861000      2.39084000
  O      1.18447000      6.64211000      2.83106000
  C     -2.46770000     -4.65071000     -2.73169000
  O     -3.58308000     -5.23944000     -3.00325000
  C     -5.39504000      1.69412000      0.34520600
  O     -6.64581000      1.49787000      0.12111200
  C     -2.26693000     -5.19931000      0.11073100
  O     -3.02931000     -6.16980000     -0.26421200
  C      5.49159000     -1.98335000      0.18409200
  O      6.39212000     -2.86435000     -0.03573580
  C      5.75668000     -0.52734400      0.65320300
  O      7.00550000     -0.23780000      0.61508500
  C      3.78838000      0.45715400      4.78985000
  O      4.42363000      1.03556000      5.74907000
  C     -5.66898000     -1.23471000      0.77786200
  O     -6.86563000     -1.11572000      1.09431000
  C     -0.82746300      2.86291000     -5.28075000
  O     -1.72170000      3.21987000     -6.12250000
  C      1.96231000     -0.21017700     -5.56022000
  O      2.34692000     -0.62213300     -6.69062000
  C      2.46843000     -3.10606000     -4.70851000
  O      2.91046000     -3.46133000     -5.86531000
  C      3.51307000      2.07029000     -4.56148000
  O      4.25689000      2.40625000     -5.55886000
  C     -1.57595000      4.30684000     -3.18414000
  O     -2.39953000      4.67541000     -4.11246000
  C      2.56505000      4.73858000      1.85259000
  O      3.41971000      5.74631000      2.23673000
