110
Energy = -11853.16602421 au
 Ni      0.03135730     -3.55092000     -2.43829000
 Ni     -1.42421000     -0.24884400     -1.19573000
 Ni      0.48937400     -4.12488000      0.29777300
 Ni     -0.32325400      4.26642000     -0.20049700
 Ni     -1.14090000      2.21437000     -1.91735000
 Ni     -3.31341000      0.51411600      0.70376200
 Ni     -0.99311400     -0.88756000      1.32235000
 Ni      0.02577700      3.57860000      2.57543000
 Ni      0.29150300     -1.00498000     -3.20820000
 Ni      3.03230000     -0.45902500     -0.64142800
 Ni      0.68980300     -1.63139000     -0.54689100
 Ni      2.39441000     -2.31144000     -2.37378000
 Ni      3.29695000      2.13872000     -1.40082000
 Ni      1.88870000     -0.33747100      3.63215000
 Ni      1.39652000      0.26046200      1.18946000
 Ni      2.66672000      0.10984400     -3.32903000
 Ni      1.34857000      3.54914000     -1.94547000
 Ni     -2.04943000     -2.16409000     -3.15482000
 Ni      3.61833000     -1.08974000      1.93334000
 Ni     -1.72819000     -2.75909000     -0.43985700
 Ni      3.87857000      1.52097000      1.26605000
 Ni      0.96389400      0.88375300     -1.32921000
 Ni     -1.84586000      0.31774900     -3.78431000
 Ni     -3.86071000     -1.36200000     -0.94369700
 Ni      2.19033000      2.19228000      2.96967000
 Ni     -0.32823600      1.08047000      3.10097000
 Ni      2.86374000     -3.02819000      0.15818400
 Ni     -1.18689000     -3.43561000      2.31641000
 Ni     -3.02581000      2.94841000     -0.02431340
 Ni      1.76222000      2.92423000      0.46713300
 Ni     -2.54800000      2.33196000      2.46070000
 Ni     -2.80759000     -0.18672000      3.07496000
 Ni      0.54505600      1.45167000     -3.91590000
 Ni     -0.72723100      1.65000000      0.57249500
 Ni     -3.57595000     -2.12353000      1.37513000
 Ni     -0.58914500     -1.77632000      3.91992000
 Ni     -3.73205000      1.03466000     -1.80194000
 Ni      1.13809000     -2.39133000      2.04206000
  C      1.96833000      4.90051000      2.82663000
  O      2.14987000      6.16752000      3.20884000
  C      0.59540000     -3.87326000      4.27904000
  O      0.82619500     -4.40157000      5.43997000
  C      4.33158000      3.64666000      1.33443000
  O      5.32267000      4.42516000      1.01251000
  C     -5.62578000      0.84833700     -0.67017300
  O     -6.86984000      0.99224300     -0.87354500
  C      4.30061000      1.18954000      4.06173000
  O      4.93415000      1.27957000      5.18572000
  C      1.03846000     -4.70709000      3.13022000
  O      1.62784000     -5.82031000      3.39555000
  C     -4.79482000      2.10448000      2.62568000
  O     -5.87761000      2.45202000      3.29062000
  C     -4.40208000     -4.09192000      0.99629800
  O     -5.13723000     -5.05927000      1.43044000
  C      0.12369300     -1.73333000     -5.32263000
  O      0.74690800     -1.93996000     -6.42959000
  C      3.36937000      4.64210000     -1.41039000
  O      4.04700000      5.69676000     -1.72139000
  C      1.97032000      0.52439700     -5.97213000
  O      1.68619000      0.71828400     -7.28443000
  C     -3.56002000     -0.59303000     -5.41069000
  O     -4.19738000     -0.42995200     -6.52131000
  C     -0.88500800      2.68474000      4.92057000
  O     -1.49353000      2.73758000      6.06347000
  C      5.40429000      0.48195400      3.22048000
  O      6.62055000      0.91998100      3.13730000
  C     -0.42209200     -3.19471000     -5.12252000
  O     -1.08097000     -3.66007000     -6.14525000
  C     -5.69383000     -1.14818000      1.00658000
  O     -6.91273000     -1.20571000      0.74154900
  C     -4.42045000      0.08757560     -4.17324000
  O     -5.65272000      0.12261000     -4.61596000
  C      0.15201500     -4.37618000     -4.40302000
  O      0.60868300     -5.24779000     -5.30852000
  C     -5.07538000      2.77807000      0.81530800
  O     -6.18447000      3.39126000      0.77183200
  C     -4.02158000     -4.10990000     -0.39735300
  O     -4.50412000     -5.08863000     -1.09085000
  C      5.21877000     -1.00401000      3.53185000
  O      5.94491000     -1.26985000      4.53349000
  C     -5.26932000     -0.74424500      2.35126000
  O     -6.25967000     -0.47626700      3.18161000
  C     -2.22371000     -3.87671000      4.32091000
  O     -2.93838000     -4.86626000      4.75117000
  C     -1.94589000     -2.86601000      5.28558000
  O     -2.41027000     -2.93559000      6.47127000
  C      2.76051000      1.80572000     -5.36378000
  O      3.72343000      2.58056000     -5.88997000
  C      0.33186500      3.49978000      4.80271000
  O      0.75002600      4.14418000      5.84637000
  C     -0.32850000      0.13517100     -5.88297000
  O     -0.54384500      0.08741260     -7.10362000
  C      1.38451000      5.73770000     -0.48829700
  O      1.75519000      6.94199000     -0.63968700
  C      2.75899000      5.15206000     -0.10043700
  O      3.44186000      5.86052000      0.80196100
  C     -5.67626000      1.36422000      0.78911200
  O     -6.79856000      1.08592000      1.53383000
  C      3.54261000      4.23707000      2.54501000
  O      4.31236000      4.99467000      3.25443000
  C      2.66379000     -0.60910500     -5.39788000
  O      3.18960000     -1.24394000     -6.35444000
  C     -2.30409000     -1.44684000     -5.51290000
  O     -2.09212000     -1.81948000     -6.70590000
  C     -2.72911000     -4.49361000     -2.67924000
  O     -3.43886000     -5.47386000     -3.10329000
  C     -1.44691000      5.50520000      2.63259000
  O     -1.73107000      6.60533000      3.23384000
  C      3.33070000     -4.45976000      2.03991000
  O      3.97739000     -5.40887000      2.60634000
