110
Energy = -12330.17073164 au
 Ni     -0.18860100     -3.65529000     -2.25985000
 Ni     -1.49030000     -0.25594800     -1.21233000
 Ni      0.43159500     -4.69059000      0.44535700
 Ni     -0.44629500      4.75705000     -0.35535400
 Ni     -1.24908000      2.53351000     -2.00342000
 Ni     -3.47350000      0.59677500      0.65180400
 Ni     -1.05435000     -0.97624300      1.25540000
 Ni     -0.08419450      3.83637000      2.15793000
 Ni      0.25932400     -0.96365700     -3.26944000
 Ni      3.27858000     -0.49757200     -0.74335100
 Ni      0.64981400     -1.67482000     -0.54211400
 Ni      2.31106000     -2.31865000     -2.35029000
 Ni      3.71963000      2.24561000     -1.63689000
 Ni      2.10072000     -0.24012500      3.76471000
 Ni      1.44639000      0.24375300      1.16028000
 Ni      2.71094000      0.24392100     -3.09447000
 Ni      1.26259000      3.74098000     -2.19646000
 Ni     -2.24881000     -2.23684000     -3.29271000
 Ni      3.63042000     -1.08156000      1.69275000
 Ni     -1.91248000     -3.13099000     -0.43437000
 Ni      3.96774000      1.52551000      0.89511500
 Ni      0.97353600      0.95221700     -1.35030000
 Ni     -1.82638000      0.32314900     -3.70861000
 Ni     -3.97392000     -1.23909000     -1.27870000
 Ni      2.32096000      2.37559000      3.28239000
 Ni     -0.24112900      1.04536000      2.95193000
 Ni      2.69222000     -3.17754000      0.19168700
 Ni     -1.43275000     -3.55933000      2.03953000
 Ni     -3.07017000      3.29174000     -0.21396000
 Ni      1.80397000      2.94777000      0.43375800
 Ni     -2.54530000      2.56269000      2.40844000
 Ni     -2.70466000     -0.16708800      3.03627000
 Ni      0.39149800      1.80398000     -3.94992000
 Ni     -0.80855600      1.72624000      0.50624300
 Ni     -3.81370000     -2.06784000      1.50951000
 Ni     -0.57468300     -1.58918000      3.85464000
 Ni     -3.86725000      1.36658000     -1.80371000
 Ni      1.11966000     -2.55030000      2.05502000
  C     -3.88547000     -4.59429000      0.77491800
  O     -4.32092000     -5.52822000     -0.00565924
  C     -4.40664000     -1.40714000     -3.29628000
  O     -5.50250000     -1.57244000     -4.02593000
  C     -5.28037000     -1.00394000      2.09830000
  O     -6.20130000     -1.17238000      2.95561000
  C      3.52873000      0.72239200      4.66718000
  O      4.44365000      0.63526700      5.62180000
  C      2.18955000     -5.24200000      1.54091000
  O      2.91058000     -6.31260000      1.63855000
  C     -2.72461000     -5.28232000      1.74860000
  O     -3.44325000     -5.89714000      2.62435000
  C     -2.25959000     -4.88331000     -1.52877000
  O     -2.67584000     -6.07772000     -1.24598000
  C      0.30110800      5.92533000     -2.06619000
  O     -0.16818100      6.82803000     -2.86854000
  C      1.63748000     -4.47549000      2.73162000
  O      1.68910000     -4.96959000      3.92548000
  C     -5.92173000      2.42688000     -2.04317000
  O     -6.77933000      3.36494000     -2.20588000
  C     -2.04020000     -2.82312000      5.17088000
  O     -2.23376000     -3.13055000      6.40617000
  C     -6.06438000      1.08338000     -1.71914000
  O     -7.13967000      0.38397400     -1.54986000
  C      2.92579000      4.18099000      2.97937000
  O      3.80739000      4.97305000      3.47771000
  C      5.87858000      0.62051100     -0.64889900
  O      7.02772000      1.15990000     -0.45203900
  C      4.27502000      3.46258000      0.43256000
  O      5.11366000      4.45584000      0.81796400
  C     -1.78679000      5.98506000      0.27605400
  O     -2.37398000      7.09256000     -0.05096880
  C      0.12808600     -6.34770000     -1.14695000
  O     -0.55704200     -7.43022000     -1.21704000
  C      5.40819000     -0.58745200      0.24409000
  O      6.44474000     -1.35332000      0.34442400
  C     -3.21288000      5.07563000      2.18071000
  O     -3.99984000      5.95161000      1.70840000
  C     -1.70184000      5.69792000      1.77709000
  O     -1.25679000      6.58438000      2.63051000
  C     -1.45203000     -5.77275000      0.99514700
  O     -1.69170000     -7.02098000      0.82717800
  C      5.11215000      0.74224800     -2.01448000
  O      6.04789000      0.64635900     -2.90603000
  C     -0.32176000      3.27537000     -4.98608000
  O     -0.47855400      3.51039000     -6.23354000
  C     -4.87667000      2.43610000      0.59646500
  O     -6.17550000      2.73503000      0.73378200
  C     -1.94032000     -4.66197000     -2.99837000
  O     -2.23112000     -5.58560000     -3.84442000
  C     -4.87914000     -3.67331000      1.42067000
  O     -5.96383000     -4.28749000      1.71510000
  C     -0.71416000      4.06132000     -3.76263000
  O     -1.38035000      5.13172000     -4.04566000
  C      1.53341000      2.30353000      5.21094000
  O      1.74873000      3.08307000      6.20159000
  C      1.28377000      5.22837000      1.43714000
  O      1.90491000      6.34046000      1.82078000
  C     -3.36020000      4.03375000     -1.97702000
  O     -3.94619000      5.09140000     -2.50208000
  C     -0.45548900     -1.11759000     -5.30249000
  O      0.11516900     -0.91820700     -6.44591000
  C     -1.55023000     -2.14951000     -5.15590000
  O     -1.96844000     -2.91738000     -6.10147000
  C     -3.47556000      4.22580000      3.39985000
  O     -4.17555000      4.64855000      4.37363000
  C      3.57131000      3.43405000     -3.14587000
  O      4.39225000      3.96202000     -4.00889000
  C     -5.41743000     -0.25383100      0.75151100
  O     -6.61955000      0.21197800      0.62196500
  C      1.54589000      5.61927000     -1.25315000
  O      2.57323000      6.31655000     -0.90244600
