#B3LYP/6-31+G(d) OPT FREQ

110, Energy = -12329.38046496 au

0 1
 Ni     -0.16925900     -3.65514000     -2.13991000
 Ni     -1.49465000     -0.20697800     -1.18452000
 Ni      0.41548200     -4.37264000      0.37728200
 Ni     -0.77439500      4.17756000     -0.20514400
 Ni     -1.32581000      2.41022000     -2.07683000
 Ni     -3.33821000      0.44563800      0.77896300
 Ni     -1.05018000     -0.93607700      1.37816000
 Ni     -0.04390680      3.94581000      2.66651000
 Ni      0.32935700     -0.96311700     -3.31011000
 Ni      3.04869000     -0.47985500     -0.69809400
 Ni      0.66063800     -1.70771000     -0.49969400
 Ni      2.41925000     -2.24287000     -2.50631000
 Ni      3.29538000      2.17173000     -1.68652000
 Ni      1.68511000     -0.30810600      3.77711000
 Ni      1.33865000      0.24359100      1.24791000
 Ni      2.96282000      0.19728000     -3.28501000
 Ni      1.03906000      3.40359000     -2.19880000
 Ni     -2.11255000     -2.07419000     -2.84402000
 Ni      3.43602000     -1.36312000      1.87227000
 Ni     -1.88800000     -2.96180000     -0.39008600
 Ni      3.66632000      1.54761000      1.07246000
 Ni      0.92992800      0.90990400     -1.35684000
 Ni     -1.93918000      0.55437300     -3.83029000
 Ni     -4.02251000     -1.55345000     -1.08717000
 Ni      2.04795000      2.42614000      3.11775000
 Ni     -0.35099800      1.10804000      3.25189000
 Ni      2.82760000     -3.22371000      0.28495000
 Ni     -1.21913000     -3.78441000      2.13308000
 Ni     -3.13270000      3.05994000     -0.19519300
 Ni      1.69609000      2.93494000      0.51014700
 Ni     -2.28567000      2.43833000      2.52823000
 Ni     -2.85643000     -0.31994900      3.49058000
 Ni      0.41073000      1.60848000     -4.04042000
 Ni     -0.77223200      1.67106000      0.55490200
 Ni     -3.43032000     -2.03124000      1.59114000
 Ni     -0.57392300     -1.36318000      3.95641000
 Ni     -3.91116000      0.99600700     -1.94389000
 Ni      1.14184000     -2.46518000      2.11166000
  C     -5.75854000      1.67953000      0.60352800
  O     -6.94845000      1.84777000      1.16373000
  C     -1.82285000     -4.84990000     -1.81786000
  O     -2.64251000     -5.36081000     -2.68651000
  C      1.73388000      4.94314000      2.83681000
  O      2.01200000      6.17641000      2.78552000
  C      3.17190000      4.28749000      2.97762000
  O      4.06730000      4.60645000      3.84218000
  C     -3.85961000     -2.85049000      4.07764000
  O     -3.60459000     -3.66352000      5.00929000
  C     -1.43561000     -5.80414000     -0.62705500
  O     -1.38471000     -7.06002000     -0.92541600
  C     -1.33161000      5.41237000      2.15956000
  O     -1.71166000      6.49094000      2.76333000
  C     -5.55389000      1.30237000     -0.96055200
  O     -6.74656000      1.43099000     -1.41629000
  C      3.72696000     -3.77743000      2.17465000
  O      4.71160000     -4.12998000      2.90590000
  C      0.27898100     -4.89632000      2.99317000
  O      0.14139800     -5.92282000      3.75531000
  C     -4.40014000     -3.88725000      2.77499000
  O     -5.24443000     -4.49811000      3.52507000
  C     -5.40592000     -3.78440000      1.34661000
  O     -6.33380000     -4.63119000      1.53861000
  C     -2.46741000      4.64303000     -1.96014000
  O     -2.55925000      5.92097000     -2.09313000
  C     -3.75242000     -4.33791000      0.00333256
  O     -3.95688000     -5.48791000     -0.55759000
  C     -0.27653500      3.76251000     -4.04447000
  O     -0.73718800      4.69679000     -4.86650000
  C      4.06427000      2.34519000     -3.94825000
  O      4.73181000      2.21187000     -5.03252000
  C      1.85637000     -4.49483000      3.15591000
  O      2.46763000     -4.59519000      4.27911000
  C     -4.19176000     -1.43490000      4.33357000
  O     -5.02277000     -1.29525000      5.33220000
  C     -2.93629000      3.88113000     -3.21908000
  O     -3.37736000      4.57621000     -4.20854000
  C     -3.44700000     -4.91810000      1.54368000
  O     -4.10858000     -5.96957000      1.90874000
  C      4.06330000      3.60021000     -3.19618000
  O      4.48525000      4.75420000     -3.55569000
  C      2.76434000     -4.95470000      1.90367000
  O      2.96248000     -6.20357000      1.72592000
  C     -3.07034000      2.26620000     -4.31634000
  O     -3.58589000      2.57064000     -5.52915000
  C     -1.49292000      0.30941300      5.43164000
  O     -2.20834000      0.70657900      6.42403000
  C      1.37529000     -1.76395000     -4.93503000
  O      1.12755000     -2.12640000     -6.14826000
  C      0.02597490      0.04879840      5.66551000
  O      0.55112700      0.18199900      6.82250000
  C     -1.89407000     -5.57268000      0.97620100
  O     -1.88836000     -6.73204000      1.56073000
  C      4.70752000     -0.88205000     -3.12575000
  O      5.91221000     -0.80718200     -3.57814000
  C     -4.73877000     -0.60018700     -3.21001000
  O     -5.78871000     -0.71599600     -3.98306000
  C     -5.18227000     -3.58547000     -0.15895300
  O     -5.92969000     -3.90378000     -1.14367000
  C     -0.98990800      3.06047000      4.58292000
  O     -1.71147000      3.38700000      5.59508000
  C     -5.17072000      0.39551300      1.49345000
  O     -6.07936000     -0.13898600      2.22317000
  C     -0.31278700      0.38013100     -5.68737000
  O     -0.11929500      0.15456200     -6.94952000
  C      3.53293000      3.92110000      1.44342000
  O      4.18632000      4.98843000      1.13533000
  C     -4.90906000      3.04880000      0.48570900
  O     -5.81922000      3.94771000      0.57379300
  C      0.59413500      3.17502000      4.73837000
  O      1.10111000      3.62415000      5.83869000

