110
Energy = -12228.38207050 au
 Ni      0.09810200     -3.62462000     -2.44516000
 Ni     -1.44620000     -0.19425200     -1.18922000
 Ni      0.46192100     -4.51308000      0.27888300
 Ni     -0.64447600      4.64797000     -0.31347400
 Ni     -1.28075000      2.38412000     -2.14623000
 Ni     -3.40466000      0.63193600      0.72432200
 Ni     -0.95247900     -0.83819500      1.32239000
 Ni      0.01561050      3.76876000      2.44101000
 Ni      0.30208100     -1.05387000     -3.22396000
 Ni      3.17173000     -0.55201100     -0.75043000
 Ni      0.72991600     -1.71046000     -0.56936900
 Ni      2.48397000     -2.55044000     -2.64972000
 Ni      3.34971000      2.05449000     -1.57803000
 Ni      1.92588000     -0.30416300      3.63029000
 Ni      1.41485000      0.27740300      1.18072000
 Ni      2.61467000      0.18564700     -3.36252000
 Ni      1.22995000      3.44492000     -1.98356000
 Ni     -2.06338000     -2.09469000     -2.83148000
 Ni      3.66330000     -1.04034000      1.77175000
 Ni     -1.68833000     -2.94519000     -0.47710400
 Ni      3.97945000      1.34185000      1.07246000
 Ni      0.94750700      0.88258900     -1.33687000
 Ni     -2.25133000      0.40729500     -3.74535000
 Ni     -3.94232000     -1.14468000     -1.01260000
 Ni      2.18945000      2.29048000      3.08360000
 Ni     -0.30379900      1.13640000      3.24801000
 Ni      2.92799000     -3.13898000      0.15165100
 Ni     -1.18593000     -3.38875000      2.00799000
 Ni     -3.02914000      3.14714000     -0.23024600
 Ni      1.71485000      2.92859000      0.60327800
 Ni     -2.45199000      2.28214000      2.51315000
 Ni     -2.87497000     -0.32139700      3.21318000
 Ni      0.42425200      1.74954000     -3.94772000
 Ni     -0.75086000      1.73161000      0.53522200
 Ni     -3.28944000     -1.97900000      1.45874000
 Ni     -0.85414600     -1.64042000      3.92050000
 Ni     -3.89233000      1.38946000     -1.85287000
 Ni      1.27902000     -2.42054000      2.01895000
  C     -3.77840000      0.00684180     -4.98538000
  O     -4.24379000      0.39382500     -6.13657000
  C     -2.33717000     -2.42347000      5.04758000
  O     -2.35529000     -3.10406000      6.15049000
  C      4.21801000      1.05447000      3.88313000
  O      5.14439000      1.26332000      4.73640000
  C     -5.18179000      2.49232000     -0.12497700
  O     -6.25463000      2.92164000      0.49634200
  C     -0.09389950      3.88948000      4.74744000
  O     -0.14116100      5.01084000      5.32236000
  C     -2.55903000     -4.75119000     -1.60959000
  O     -3.16676000     -5.65617000     -2.29858000
  C      3.49749000      4.07490000      1.87960000
  O      4.60580000      4.70169000      1.83786000
  C      5.98730000      1.04022000      0.13730500
  O      6.97953000      1.49137000     -0.55129000
  C      2.64829000     -4.15011000      2.87636000
  O      2.88448000     -4.29627000      4.13000000
  C     -1.42322000      5.65704000     -1.86681000
  O     -1.10445000      6.61557000     -2.67098000
  C     -1.27592000      3.68551000     -4.00179000
  O     -2.10066000      4.63987000     -4.32912000
  C     -5.92908000      1.45898000     -1.09388000
  O     -6.94104000      1.77698000     -1.82764000
  C     -2.71140000      4.99780000     -1.68708000
  O     -3.72221000      5.50163000     -2.31363000
  C      2.16814000     -5.29540000      1.80629000
  O      2.09112000     -6.53206000      2.10787000
  C      2.19032000      4.75807000      2.29195000
  O      2.25321000      6.00282000      2.58690000
  C     -3.61422000     -2.17568000      4.37607000
  O     -4.70376000     -2.74730000      4.74143000
  C     -4.78470000      1.04291000      2.38488000
  O     -6.07992000      1.19150000      2.53387000
  C      5.89692000     -0.19939400      0.82526200
  O      6.88710000     -1.00575000      0.96836100
  C     -4.48125000     -0.88301600     -4.14933000
  O     -5.62754000     -1.45732000     -4.30324000
  C     -2.46768000     -5.34263000     -0.20576200
  O     -3.44613000     -5.75899000      0.53071100
  C     -1.00503000     -5.85907000     -0.10371100
  O     -1.13494000     -7.02600000     -0.54632900
  C     -3.69838000      2.68503000     -3.58890000
  O     -4.48065000      3.51676000     -4.21293000
  C      0.84028300      2.58239000      5.00213000
  O      1.22320000      2.51156000      6.21729000
  C      3.57066000      2.92073000     -3.75245000
  O      4.42049000      3.54402000     -4.46853000
  C      0.84053200     -4.30180000     -4.50293000
  O      0.76162100     -5.44267000     -5.14048000
  C      5.11125000     -1.67980000     -1.48312000
  O      6.37341000     -1.46004000     -1.59066000
  C     -0.26670800      3.40383000     -4.99629000
  O     -0.07260710      4.06736000     -6.08725000
  C      2.90068000     -4.77332000     -2.60623000
  O      3.57803000     -5.58133000     -3.32696000
  C      1.94368000     -3.16094000     -4.79325000
  O      2.85098000     -3.18267000     -5.70225000
  C      3.69394000     -4.62129000      1.74300000
  O      4.84934000     -5.16234000      1.87623000
  C     -1.05130000      2.58198000      4.80527000
  O     -1.67626000      2.52889000      5.94585000
  C      2.01213000     -0.12300900     -5.51850000
  O      2.46614000     -0.59978900     -6.60181000
  C      0.32052700     -2.81450000     -4.92653000
  O     -0.23656000     -2.71145000     -6.07174000
  C      1.45559000      5.60612000     -0.33661200
  O      1.87995000      6.79766000     -0.13131100
  C     -1.65015000      5.53426000      1.52870000
  O     -2.12077000      6.69036000      1.77767000
  C     -5.67671000     -0.00097762     -0.53326200
  O     -6.81928000     -0.20196900      0.02111200
