110
Energy = -10086.73766802 au
 Ni      0.07929840     -3.46222000     -2.23838000
 Ni     -1.36665000     -0.22842500     -1.15849000
 Ni      0.48272200     -4.15279000      0.22480900
 Ni     -0.48616600      4.16275000     -0.23053700
 Ni     -1.13905000      2.24243000     -1.90446000
 Ni     -3.02670000      0.49274400      0.65321700
 Ni     -0.94620100     -0.86133200      1.28503000
 Ni     -0.08290340      3.47119000      2.23942000
 Ni      0.29354300     -0.96112000     -2.97878000
 Ni      3.02117000     -0.49297300     -0.65362900
 Ni      0.71343600     -1.60776000     -0.53170000
 Ni      2.40384000     -2.32658000     -2.38560000
 Ni      3.28041000      1.99022000     -1.42301000
 Ni      1.81213000     -0.40925800      3.63823000
 Ni      1.36591000      0.22850600      1.15868000
 Ni      2.63277000      0.15610200     -3.13460000
 Ni      1.17636000      3.37649000     -2.05213000
 Ni     -2.03841000     -2.07068000     -2.89299000
 Ni      3.48578000     -1.13694000      1.80601000
 Ni     -1.59064000     -2.69411000     -0.40741200
 Ni      3.71262000      1.34514000      1.05564000
 Ni      0.94577200      0.86140300     -1.28433000
 Ni     -1.81467000      0.40716500     -3.63320000
 Ni     -3.72331000     -1.33690000     -1.05537000
 Ni      2.03565000      2.07228000      2.88509000
 Ni     -0.29357500      0.95938100      2.97638000
 Ni      2.80684000     -2.98955000      0.09360880
 Ni     -1.18166000     -3.37297000      2.06167000
 Ni     -2.81258000      2.99233000     -0.09719690
 Ni      1.58862000      2.69435000      0.40880600
 Ni     -2.40793000      2.33075000      2.38949000
 Ni     -2.63898000     -0.16234800      3.15225000
 Ni      0.52687100      1.52579000     -3.75650000
 Ni     -0.71395600      1.60850000      0.53193800
 Ni     -3.28431000     -1.98790000      1.42785000
 Ni     -0.52996400     -1.53294000      3.76925000
 Ni     -3.50008000      1.14183000     -1.80317000
 Ni      1.13878000     -2.23980000      1.90673000
  C     -6.02681000      0.99111400     -1.50513000
  O     -7.26738000      1.15588000     -1.24724000
  C     -5.00450000     -1.91736000     -3.30444000
  O     -5.98207000     -2.07568000     -4.12433000
  C      2.56537000      4.11574000     -4.04312000
  O      3.23403000      4.73731000     -4.94871000
  C     -2.44119000     -5.04911000     -1.35276000
  O     -3.08990000     -6.12929000     -1.57630000
  C      1.29616000     -3.46512000     -4.74884000
  O      1.45424000     -3.90735000     -5.93639000
  C     -3.32602000     -4.77693000      0.42745900
  O     -4.02132000     -5.84595000      0.31084200
  C     -1.33722000      3.04831000      4.89211000
  O     -1.44483000      3.40889000      6.10307000
  C     -3.70940000     -2.20982000      4.47704000
  O     -4.41971000     -2.76610000      5.39653000
  C     -5.50407000      2.47177000     -0.18427500
  O     -6.72527000      2.72980000      0.10615200
  C     -0.46353800     -4.80896000      4.05272000
  O     -0.07513930     -5.73277000      4.82629000
  C      0.17554100      4.40489000      4.58704000
  O      0.08376400      4.82477000      5.79364000
  C      1.32658000     -4.79618000      3.05192000
  O      1.77822000     -5.70764000      3.80404000
  C     -5.24618000      0.55757300     -3.50547000
  O     -6.20670000      0.40081700     -4.34484000
  C     -2.87016000      1.16968000      5.32947000
  O     -2.97076000      1.48830000      6.55415000
  C      3.26644000     -4.71639000     -2.64589000
  O      3.80401000     -5.81572000     -3.04074000
  C      0.94017600      1.56716000      5.55502000
  O      0.82456200      1.94881000      6.77724000
  C     -2.07173000      5.24566000      2.75815000
  O     -2.53144000      6.37053000      3.14584000
  C     -3.21578000      3.94491000     -2.88054000
  O     -3.74757000      4.75446000     -3.67601000
  C     -5.83330000     -0.75337500      0.65737200
  O     -7.07740000     -0.56432000      0.92078900
  C     -0.44979300      6.34250000     -1.84845000
  O     -0.95220100      7.23902000     -2.62124000
  C     -2.73385000      5.32858000     -1.55073000
  O     -3.22263000      6.27068000     -2.28113000
  C      0.23042700      4.45680000     -4.29573000
  O     -0.16047800      5.34933000     -5.12445000
  C      2.18709000     -3.33958000      4.17562000
  O      2.69010000     -4.18373000      4.96485000
  C      3.58606000      4.70654000     -1.12902000
  O      4.29526000      5.76775000     -1.00674000
  C      2.02473000      5.11651000      2.36403000
  O      2.65001000      6.22072000      2.56928000
  C      0.39744600     -3.37556000      5.18122000
  O      0.82230900     -4.21455000      6.01438000
  C      1.87069000      5.68904000     -0.52348800
  O      2.50080000      6.79657000     -0.37484600
  C     -1.76651000     -2.77228000     -5.27037000
  O     -1.73410000     -3.19126000     -6.46417000
  C      3.32754000     -4.22577000      2.47155000
  O      3.83355000     -5.11453000      3.24428000
  C     -1.85643000     -2.94261000      5.28277000
  O     -2.52301000     -3.57878000      6.30097000
  C      3.85383000      4.03221000      2.12588000
  O      4.54597000      5.09857000      2.31111000
  C     -3.75232000      4.29049000      3.20564000
  O     -4.32319000      5.37384000      3.57041000
  C     -1.39190000      4.62732000     -3.19427000
  O     -1.84645000      5.53020000     -3.95348000
  C      0.04074320     -2.07692000     -5.32255000
  O      0.18776600     -2.37038000     -6.53545000
  C     -3.34435000      3.05011000      4.68567000
  O     -3.50824000      3.46122000      5.89080000
  C     -2.91183000     -3.97510000      3.90155000
  O     -3.56467000     -4.64748000      4.74027000
