110
Energy = -11922.57690581 au
 Ni      0.22230400     -3.74839000     -2.27770000
 Ni     -1.40540000     -0.22037800     -1.21537000
 Ni      0.69145200     -4.51458000      0.20750200
 Ni     -0.52353800      4.33255000     -0.22781100
 Ni     -1.27037000      2.52050000     -2.11312000
 Ni     -3.31297000      0.53421400      0.59222800
 Ni     -1.01555000     -0.89653400      1.28490000
 Ni     -0.08633340      3.51125000      2.18046000
 Ni      0.29640700     -1.18468000     -3.17396000
 Ni      3.19561000     -0.50585700     -0.68772900
 Ni      0.75725800     -1.70475000     -0.56061800
 Ni      2.76862000     -2.38235000     -2.45899000
 Ni      3.41962000      1.93024000     -1.46779000
 Ni      1.82207000     -0.32439500      3.74501000
 Ni      1.40122000      0.22469500      1.16280000
 Ni      2.92953000      0.13571400     -3.17379000
 Ni      1.29395000      3.62301000     -2.00151000
 Ni     -2.10347000     -2.05447000     -3.20897000
 Ni      3.68818000     -1.09422000      1.87503000
 Ni     -1.63440000     -2.90383000     -0.42411800
 Ni      3.91670000      1.25918000      1.11429000
 Ni      0.96389000      0.88171300     -1.31259000
 Ni     -1.90966000      0.39731300     -3.74507000
 Ni     -3.76806000     -1.34022000     -1.22480000
 Ni      2.00847000      2.06757000      3.02285000
 Ni     -0.29571800      0.95331600      3.06386000
 Ni      3.03031000     -3.19432000      0.13973800
 Ni     -1.29177000     -3.46244000      2.23650000
 Ni     -2.98586000      3.22555000     -0.25458700
 Ni      1.69147000      2.93353000      0.39491700
 Ni     -2.41425000      2.31100000      2.32355000
 Ni     -2.97659000     -0.20062800      3.08239000
 Ni      0.56186000      1.50228000     -3.71469000
 Ni     -0.74976800      1.65449000      0.47325600
 Ni     -3.52281000     -2.05022000      1.45781000
 Ni     -0.64484400     -1.58068000      3.75212000
 Ni     -3.72986000      1.44531000     -1.80042000
 Ni      1.13296000     -2.49085000      2.03264000
  C     -3.46780000      2.92064000     -3.45619000
  O     -4.04759000      3.86581000     -4.12053000
  C      4.85835000      0.30103500      3.48060000
  O      5.89350000      0.30894200      4.21751000
  C      1.84407000      5.34912000      0.60537700
  O      2.04725000      6.51933000      1.08841000
  C      0.02850970     -2.53843000     -5.00485000
  O      0.63788500     -3.21010000     -5.93612000
  C     -5.48425000     -1.01896000      1.92993000
  O     -6.72171000     -1.16344000      1.61378000
  C     -2.19156000     -5.14713000     -1.03471000
  O     -2.38038000     -6.27080000     -1.65019000
  C      1.41403000     -5.52109000      2.54825000
  O      2.20193000     -6.40568000      3.08071000
  C     -5.33972000     -3.62220000      1.59297000
  O     -5.81572000     -4.79043000      1.33084000
  C      2.78741000      5.09607000     -0.61673200
  O      4.07117000      5.43730000     -0.56843600
  C      1.10547000     -5.63797000     -2.42921000
  O      1.40790000     -6.46330000     -3.37728000
  C      2.34571000     -3.12958000     -4.71543000
  O      2.97964000     -3.46152000     -5.77369000
  C     -4.11090000      4.50413000     -1.45684000
  O     -5.19349000      5.14012000     -1.70999000
  C     -1.99168000      5.65024000      1.15107000
  O     -2.37560000      6.86364000      1.34106000
  C      4.89885000     -3.22891000     -1.49865000
  O      5.98058000     -3.90947000     -1.37970000
  C     -5.46619000      1.16770000      0.30676500
  O     -6.62399000      1.02101000      0.87028200
  C     -5.06354000     -0.19137300      3.05320000
  O     -5.99462000      0.31379100      3.80245000
  C      4.28947000     -4.13634000      1.86684000
  O      5.24634000     -4.42220000      2.68047000
  C      1.43312000     -5.97397000     -1.06396000
  O      2.07620000     -7.06650000     -0.82585900
  C     -3.05718000     -4.77819000      0.03654310
  O     -3.98630000     -5.60990000      0.33211700
  C     -4.53254000     -2.06578000     -3.46517000
  O     -5.45410000     -2.19140000     -4.31162000
  C      5.81106000      0.01846730      0.72281700
  O      7.05526000      0.07494490      0.48811600
  C     -5.52432000      2.18549000     -0.74551600
  O     -6.60639000      2.89976000     -0.88652000
  C      1.03751000     -4.25374000      3.33466000
  O      1.22239000     -4.65354000      4.55373000
  C      2.04208000      5.64104000     -1.83453000
  O      2.46756000      6.79955000     -2.11743000
  C     -1.66501000      4.32817000     -2.96150000
  O     -1.49368000      4.93707000     -4.07992000
  C      3.70802000      1.58806000     -4.85103000
  O      4.59980000      1.84722000     -5.74418000
  C      3.31279000     -5.08081000      1.45324000
  O      3.57678000     -6.33832000      1.39796000
  C      0.24017400     -6.20833000      1.93097000
  O      0.02158510     -7.34575000      2.50929000
  C     -2.87744000     -2.82281000      4.66593000
  O     -3.35682000     -2.78549000      5.84352000
  C     -1.29588000     -1.93913000     -5.28547000
  O     -1.69584000     -1.96416000     -6.51126000
  C      1.24995000      1.53347000      5.28335000
  O      1.22764000      1.92595000      6.49313000
  C     -3.97613000      0.03710160     -4.78852000
  O     -4.65934000     -0.07911090     -5.87231000
  C     -2.83098000      4.98711000     -2.13077000
  O     -3.09478000      6.21639000     -2.48865000
  C     -3.14691000     -3.82712000      3.67827000
  O     -3.98808000     -4.74590000      3.97887000
  C      4.88429000     -2.23514000     -2.56841000
  O      5.92309000     -1.91088000     -3.24903000
  C      5.11272000      0.45042000     -2.34590000
  O      6.33759000      0.36694800     -2.69003000
