110
Energy = -12020.52967111 au
 Ni     -0.00442320     -3.60244000     -2.17049000
 Ni     -1.41425000     -0.20377400     -1.18177000
 Ni      0.57535300     -4.37958000      0.28371100
 Ni     -0.63891800      4.33904000     -0.40812800
 Ni     -1.22101000      2.53973000     -2.15239000
 Ni     -3.31928000      0.54231700      0.72798200
 Ni     -0.95187300     -0.88394400      1.31137000
 Ni     -0.24990100      3.62396000      2.54914000
 Ni      0.35424300     -0.95442000     -3.04425000
 Ni      3.32072000     -0.56075300     -0.76075800
 Ni      0.82549700     -1.67906000     -0.52174900
 Ni      2.72398000     -2.55431000     -2.73367000
 Ni      3.36619000      2.10378000     -1.34246000
 Ni      2.16659000     -0.57223900      3.82809000
 Ni      1.44856000      0.20100500      1.20789000
 Ni      2.71332000      0.00351554     -3.38646000
 Ni      1.20626000      3.59949000     -2.05428000
 Ni     -2.21382000     -2.10767000     -2.95266000
 Ni      3.86180000     -1.33097000      1.84716000
 Ni     -1.66458000     -2.90214000     -0.42517600
 Ni      3.73848000      1.42301000      1.03804000
 Ni      1.01053000      0.92514300     -1.33710000
 Ni     -1.85744000      0.69518400     -3.77611000
 Ni     -3.83743000     -1.53191000     -1.03674000
 Ni      2.27519000      2.12429000      3.01139000
 Ni     -0.30785400      1.08645000      3.12559000
 Ni      3.01529000     -3.23436000      0.04772370
 Ni     -1.05827000     -3.40843000      2.09369000
 Ni     -3.21751000      3.24573000     -0.24549800
 Ni      1.73251000      3.02862000      0.47861400
 Ni     -2.83290000      2.48198000      2.44052000
 Ni     -2.77302000     -0.10672700      3.06810000
 Ni      0.54331600      1.59738000     -4.01843000
 Ni     -0.77496100      1.71660000      0.53240000
 Ni     -3.43354000     -2.05693000      1.46639000
 Ni     -0.33102600     -1.61940000      3.83274000
 Ni     -3.64781000      1.16074000     -1.76841000
 Ni      1.40983000     -2.58834000      2.14504000
  C      3.93986000     -2.57758000      3.57793000
  O      4.69303000     -3.46455000      4.14227000
  C      1.38013000     -2.67982000      4.62138000
  O      1.78945000     -3.66431000      5.46144000
  C      2.61043000     -4.52572000      2.31013000
  O      3.63568000     -5.22528000      2.62824000
  C      0.31406600      2.69806000     -6.14435000
  O      0.31353200      3.25889000     -7.29496000
  C      5.19025000     -1.23609000     -2.93534000
  O      6.02820000     -0.88592100     -3.86300000
  C     -1.01433000      5.72758000      2.30582000
  O     -1.48942000      6.59685000      3.11544000
  C     -1.37998000     -5.19600000     -1.17532000
  O     -2.03579000     -6.28437000     -1.45063000
  C      5.56898000     -1.70894000     -0.61243900
  O      6.32923000     -2.62097000     -1.10848000
  C      1.99381000      5.35587000     -1.00722000
  O      2.80916000      6.36516000     -1.19622000
  C      5.55250000     -1.32698000      0.86552900
  O      6.78864000     -1.14221000      1.16921000
  C     -5.68128000      1.31583000     -0.76644900
  O     -6.88387000      1.64913000     -0.97229900
  C      3.13725000      4.34389000      1.42091000
  O      3.30406000      5.48030000      1.99368000
  C     -2.18917000      5.46508000     -1.70104000
  O     -2.17569000      6.75439000     -1.69385000
  C      1.27373000     -4.67551000      2.96234000
  O      0.94050900     -5.47008000      3.91034000
  C      3.71769000      0.34027500      4.93146000
  O      4.42013000     -0.13420800      5.90975000
  C     -4.95467000      3.42780000      0.83540200
  O     -6.20944000      3.69859000      0.68327100
  C     -4.41470000     -3.95435000      0.59195700
  O     -5.13412000     -4.95851000      0.87759900
  C     -1.36251000      4.58030000     -2.80119000
  O     -1.86890000      5.22144000     -3.80367000
  C      3.96036000      3.96953000      0.21622600
  O      4.80891000      4.85328000     -0.17668400
  C     -0.72306200      3.35077000     -5.25286000
  O     -0.63876500      4.64077000     -5.37292000
  C      5.42979000     -0.42312500     -1.59469000
  O      6.38010000      0.38642600     -1.27585000
  C     -4.83772000      1.54416000      2.58044000
  O     -5.76692000      2.34869000      2.96167000
  C     -0.42373900      2.92930000      4.58681000
  O     -0.53536800      3.37037000      5.80262000
  C      2.70898000     -1.46086000     -5.44041000
  O      3.67124000     -1.61619000     -6.29300000
  C     -3.47081000      4.63258000     -1.53595000
  O     -4.39301000      5.20634000     -2.22029000
  C     -3.27573000      4.58212000      2.61950000
  O     -3.95066000      5.37413000      3.33639000
  C      2.44640000     -2.73925000     -4.61959000
  O      2.53527000     -3.71927000     -5.44881000
  C      4.59096000     -2.64806000     -2.89302000
  O      5.41458000     -3.59855000     -3.15424000
  C      3.90176000      1.62356000      4.43566000
  O      4.85685000      2.36439000      4.89942000
  C      1.05424000     -6.57459000      1.03101000
  O      1.61715000     -7.11057000      2.05889000
  C      1.79949000     -0.19847700     -5.47817000
  O      1.58455000      0.11216800     -6.70327000
  C     -1.96044000      2.48723000     -4.79831000
  O     -2.94081000      2.96227000     -5.48064000
  C     -5.13806000      0.11909400      2.14045000
  O     -6.33457000     -0.35188100      2.19060000
  C     -3.85527000     -1.77653000     -4.53141000
  O     -4.74932000     -2.43145000     -5.18548000
  C     -4.40020000     -3.53018000     -1.91035000
  O     -5.32057000     -4.39115000     -1.82285000
  C      3.03981000     -5.14876000     -0.99774900
  O      3.84897000     -6.11530000     -1.16165000
