#B3LYP/6-31+G(d) OPT FREQ

110, Energy = -10058.21728601 au

0 1
 Ni      0.08453360     -3.47704000     -2.23664000
 Ni     -1.36653000     -0.22815500     -1.15884000
 Ni      0.47885900     -4.16851000      0.21191600
 Ni     -0.48785900      4.16770000     -0.22543700
 Ni     -1.14237000      2.24461000     -1.90857000
 Ni     -3.03701000      0.49490600      0.65680800
 Ni     -0.94602000     -0.86100400      1.28450000
 Ni     -0.07600380      3.46491000      2.23087000
 Ni      0.29507100     -0.95647500     -2.97614000
 Ni      3.02424000     -0.49482700     -0.65631200
 Ni      0.71380800     -1.60844000     -0.53205100
 Ni      2.42483000     -2.33562000     -2.38212000
 Ni      3.29145000      1.99412000     -1.43439000
 Ni      1.81308000     -0.40587400      3.63422000
 Ni      1.36637000      0.22869200      1.15834000
 Ni      2.64163000      0.15340700     -3.13837000
 Ni      1.18611000      3.37037000     -2.05652000
 Ni     -2.03608000     -2.07405000     -2.88229000
 Ni      3.49202000     -1.13659000      1.80208000
 Ni     -1.58583000     -2.69045000     -0.40915700
 Ni      3.71397000      1.33951000      1.05524000
 Ni      0.94631800      0.86137400     -1.28474000
 Ni     -1.82225000      0.42352500     -3.64360000
 Ni     -3.71960000     -1.33256000     -1.05279000
 Ni      2.03508000      2.07246000      2.88775000
 Ni     -0.29179600      0.95793200      2.97511000
 Ni      2.82188000     -2.99236000      0.07992480
 Ni     -1.18411000     -3.37189000      2.04442000
 Ni     -2.82249000      3.00285000     -0.10096700
 Ni      1.58798000      2.69451000      0.40766900
 Ni     -2.40754000      2.32447000      2.37823000
 Ni     -2.64121000     -0.15568100      3.13887000
 Ni      0.52990600      1.52383000     -3.76275000
 Ni     -0.71403500      1.60824000      0.53131800
 Ni     -3.28345000     -1.97863000      1.42649000
 Ni     -0.52734000     -1.51603000      3.76106000
 Ni     -3.50730000      1.14915000     -1.80762000
 Ni      1.13348000     -2.22910000      1.89706000
  C     -2.43806000      5.77613000      0.76736900
  O     -2.96534000      6.86240000      1.17076000
  C      4.85704000     -0.49529600     -4.33508000
  O      6.10545000     -0.67777900     -4.59882000
  C      4.98453000     -2.14144000     -2.69706000
  O      6.14703000     -2.26854000     -3.00761000
  C      5.45122000      1.13604000     -2.72459000
  O      6.70064000      0.94810400     -2.98719000
  C      2.32640000     -4.85289000     -3.55780000
  O      2.83664000     -5.88381000     -4.03333000
  C     -0.38515600      5.59201000     -2.67069000
  O     -0.84009700      6.50876000     -3.46472000
  C      1.69203000     -6.36433000     -0.09340890
  O      2.21418000     -7.48248000     -0.47102400
  C      1.17519000     -0.75117700     -5.60569000
  O      1.28907000     -1.13945000     -6.83466000
  C     -3.27517000      2.09847000     -4.91730000
  O     -3.77420000      2.90178000     -5.73608000
  C     -2.88494000      4.76536000      3.00509000
  O     -3.41539000      5.87002000      3.40769000
  C     -5.95753000      0.53197300     -0.76446800
  O     -7.17880000      0.67170200     -0.58449500
  C     -5.51037000      2.50594000     -0.25865600
  O     -6.73110000      2.78875000     -0.01669590
  C      2.62971000      4.69332000      2.64044000
  O      3.29474000      5.78301000      2.84599000
  C      1.46772000      5.77746000      0.53813200
  O      2.13369000      6.87001000      0.71884200
  C     -2.20449000      6.04025000     -1.09653000
  O     -2.67689000      6.94752000     -1.90284000
  C      0.81236200     -5.90072000     -2.59562000
  O      1.27848000     -7.00215000     -2.97439000
  C     -4.08550000      3.14398000     -3.16614000
  O     -4.60501000      4.06643000     -4.03082000
  C     -2.25672000     -5.53687000      1.17605000
  O     -3.00085000     -6.57210000      1.11828000
  C      4.41637000     -3.89701000     -3.86566000
  O      5.66313000     -4.11490000     -4.14425000
  C     -2.29312000      4.53601000     -2.71930000
  O     -2.78169000      5.48750000     -3.52850000
  C     -0.94424200     -6.21585000      0.00863620
  O     -1.50751000     -7.31896000     -0.19857100
  C      0.85158200      2.16984000      5.35438000
  O      0.73873900      2.55745000      6.58313000
  C      2.46879000      3.43885000     -4.54664000
  O      3.06199000      4.05789000     -5.53339000
  C     -1.40075000     -0.32222500      5.92164000
  O     -1.50852000      0.05162850      7.15302000
  C     -1.72405000     -2.57993000     -5.31780000
  O     -1.61346000     -2.97585000     -6.53793000
  C     -4.06234000      4.52335000     -1.69677000
  O     -4.57245000      5.43259000     -2.36709000
  C      5.14209000     -3.24448000     -1.12679000
  O      6.32823000     -3.48763000     -1.33532000
  C      6.10942000      0.95189600      0.46002900
  O      7.35686000      0.76479300      0.20609400
  C     -5.28431000     -0.19320000      2.78248000
  O     -6.53169000     -0.04344930      3.12298000
  C     -2.37031000     -4.87414000     -2.50313000
  O     -3.02966000     -5.96832000     -2.70601000
  C      3.98409000      3.49508000     -3.41691000
  O      4.74075000      4.09985000     -4.25025000
  C     -5.45329000      0.90501600      1.12036000
  O     -6.72982000      1.13232000      1.42756000
  C      5.58190000     -2.86902000      0.94676600
  O      6.84274000     -3.08546000      0.72498000
  C      2.76212000     -5.30473000     -1.71749000
  O      3.30423000     -6.39358000     -2.05161000
  C     -1.86946000      3.40646000     -4.30994000
  O     -2.26626000      4.26549000     -5.10268000
  C      3.36026000      4.82362000     -1.01674000
  O      4.03605000      5.91802000     -0.88151300

