#B3LYP/6-31+G(d) OPT FREQ

110, Energy = -12459.93235610 au

0 1
 Ni      0.12550800     -3.65405000     -2.47628000
 Ni     -1.55315000     -0.34048800     -1.16587000
 Ni      0.39806700     -4.27574000      0.23810700
 Ni     -0.57987700      4.29880000     -0.30293800
 Ni     -1.25238000      2.26240000     -1.93809000
 Ni     -3.41435000      0.51784900      0.69886200
 Ni     -1.10601000     -0.92881100      1.30448000
 Ni     -0.32231700      3.65848000      2.28870000
 Ni      0.29501500     -1.19271000     -3.15467000
 Ni      3.33283000     -0.70386800     -0.85112300
 Ni      0.70564500     -1.73818000     -0.62381000
 Ni      2.77017000     -2.62244000     -2.67648000
 Ni      3.17317000      1.94300000     -1.48930000
 Ni      1.99856000     -0.30067500      4.11108000
 Ni      1.38120000      0.16535700      1.14822000
 Ni      2.63088000      0.14102000     -3.36652000
 Ni      0.93985400      3.57582000     -2.15250000
 Ni     -2.39084000     -2.30412000     -3.01583000
 Ni      3.68519000     -1.00097000      2.03321000
 Ni     -1.79220000     -2.99098000     -0.58417000
 Ni      3.67508000      1.32466000      0.99537400
 Ni      0.91021200      0.77544700     -1.32498000
 Ni     -2.03549000      0.36498000     -3.58421000
 Ni     -4.07239000     -1.55364000     -1.01099000
 Ni      1.96548000      2.05763000      2.85695000
 Ni     -0.34651900      0.85928800      3.09112000
 Ni      2.78570000     -3.32573000     -0.17536000
 Ni     -1.47342000     -3.51199000      1.93915000
 Ni     -2.88790000      3.15628000     -0.31853300
 Ni      1.45670000      2.71209000      0.37093300
 Ni     -2.57577000      2.19643000      2.52840000
 Ni     -3.01147000     -0.43363500      3.33472000
 Ni      0.50492500      1.44916000     -3.74579000
 Ni     -0.83638000      1.61993000      0.54569200
 Ni     -3.51521000     -2.03977000      1.42428000
 Ni     -0.70368500     -1.64972000      4.00946000
 Ni     -3.99456000      1.05718000     -2.07373000
 Ni      1.10167000     -2.22458000      1.92404000
  C      0.84504100     -0.04095040      5.62065000
  O      1.12417000      0.40675500      6.82008000
  C      2.50058000     -0.05172960     -5.42198000
  O      2.66059000      0.65177000     -6.49126000
  C      3.38154000     -5.56272000     -0.43268200
  O      4.60937000     -5.97109000     -0.33222500
  C     -3.95017000     -2.12169000     -4.36474000
  O     -5.08293000     -2.71963000     -4.66570000
  C      5.02044000     -1.17558000     -1.68679000
  O      6.23403000     -0.81264900     -1.43795000
  C      4.02794000     -0.19051900      4.52718000
  O      4.43185000      0.00959223      5.73836000
  C     -5.61116000      1.59108000     -1.32995000
  O     -6.74817000      1.86049000     -1.86874000
  C     -1.56870000      3.46291000      4.73042000
  O     -1.17921000      4.31496000      5.57839000
  C     -3.56463000     -1.17049000     -5.30109000
  O     -4.07015000     -0.67813600     -6.35238000
  C     -2.71701000     -5.17734000     -0.04259140
  O     -3.44190000     -5.86634000     -0.83431300
  C      2.26490000     -6.14056000      0.33669200
  O      2.41708000     -7.39588000      0.52524900
  C      0.60711800     -3.16394000     -4.38694000
  O      0.09902890     -3.56901000     -5.50164000
  C      4.98657000     -0.40706200      3.44200000
  O      6.26362000     -0.25598500      3.51066000
  C     -1.25455000     -5.87453000      0.03506940
  O     -1.49051000     -6.79714000      0.89997300
  C      4.65895000     -2.14776000     -2.75266000
  O      5.55615000     -2.65826000     -3.53217000
  C      2.91061000     -4.77933000     -1.80595000
  O      3.26439000     -5.71516000     -2.60851000
  C     -2.76861000      4.59694000     -1.74974000
  O     -3.80768000      5.14229000     -2.27895000
  C     -3.26178000     -4.41969000      1.23028000
  O     -4.09907000     -5.27897000      1.69958000
  C     -5.04219000     -0.21585100      2.39591000
  O     -6.23854000     -0.69258800      2.51071000
  C     -0.34638700      5.16802000     -2.61469000
  O     -0.04073150      6.13240000     -3.40876000
  C      2.24331000     -1.45952000     -5.66684000
  O      1.99099000     -2.02357000     -6.78742000
  C     -4.36588000      1.14474000     -3.94256000
  O     -5.46565000      0.93697000     -4.63821000
  C     -2.24339000      2.25016000      4.94742000
  O     -2.53652000      1.93854000      6.15714000
  C      0.70170100     -6.47074000     -1.83608000
  O      1.56161000     -7.46902000     -2.09702000
  C     -4.71418000      1.33138000      2.46650000
  O     -5.60987000      2.20965000      2.75101000
  C     -5.68062000     -0.68818100     -0.20312200
  O     -6.83625000     -1.20921000      0.01276150
  C     -4.29149000     -3.52553000     -1.62255000
  O     -5.34241000     -4.23489000     -1.39857000
  C     -5.01919000     -0.28652700      4.68902000
  O     -5.64500000     -0.98541000      5.57035000
  C     -3.20166000     -3.98468000     -2.59956000
  O     -3.09162000     -5.06442000     -3.30062000
  C     -1.72246000      5.25955000      2.47734000
  O     -1.72400000      6.32581000      3.17731000
  C     -1.80069000     -2.74454000      5.29256000
  O     -1.61584000     -3.64860000      6.18735000
  C     -1.69083000      5.69763000     -2.02936000
  O     -2.01129000      6.93432000     -2.04876000
  C      2.16142000     -2.83988000     -4.68424000
  O      2.95027000     -3.72144000     -5.19201000
  C     -0.78029600     -6.13783000     -1.49449000
  O     -1.67024000     -6.85189000     -2.10147000
  C     -3.01729000     -2.11068000      4.79747000
  O     -4.08010000     -2.65797000      5.29582000
  C     -5.98283000      0.84061200     -0.05976800
  O     -6.82207000      1.41496000      0.72649600

