#B3LYP/6-31+G(d) OPT FREQ

110, Energy = -12083.98474753 au

0 1
 Ni      0.30862700     -3.59872000     -2.19529000
 Ni     -1.34368000     -0.22779500     -1.20205000
 Ni      0.64428300     -4.27625000      0.44373700
 Ni     -0.61995400      4.20768000     -0.43228600
 Ni     -1.27411000      2.33656000     -2.13217000
 Ni     -3.01672000      0.51213900      0.73194600
 Ni     -0.93477400     -0.90929200      1.34766000
 Ni     -0.20393200      3.75743000      2.29662000
 Ni      0.40598400     -1.07257000     -3.20282000
 Ni      3.33013000     -0.61524300     -0.75545000
 Ni      0.79794500     -1.66696000     -0.54384400
 Ni      2.67942000     -2.43877000     -2.72675000
 Ni      3.34435000      2.14697000     -1.62506000
 Ni      1.91499000     -0.53337000      3.61083000
 Ni      1.44718000      0.20772000      1.16323000
 Ni      2.81619000      0.07955160     -3.08029000
 Ni      1.16161000      3.36747000     -2.06739000
 Ni     -2.05618000     -2.14924000     -2.83857000
 Ni      3.75439000     -1.21128000      1.78785000
 Ni     -1.66784000     -2.87215000     -0.40069700
 Ni      4.02988000      1.38265000      0.92778700
 Ni      0.98258500      0.86574700     -1.31141000
 Ni     -2.03344000      0.45398700     -3.79696000
 Ni     -3.71238000     -1.43644000     -1.06702000
 Ni      2.08914000      2.21889000      2.84766000
 Ni     -0.33481200      0.92622300      3.10577000
 Ni      3.09213000     -3.38450000      0.09325400
 Ni     -1.16349000     -3.48284000      2.13515000
 Ni     -2.79858000      3.14731000     -0.12853500
 Ni      1.70516000      2.81478000      0.46160600
 Ni     -2.36503000      2.54936000      2.58114000
 Ni     -2.82224000     -0.24180400      3.48238000
 Ni      0.45967800      1.57671000     -3.81276000
 Ni     -0.71005200      1.67064000      0.54438800
 Ni     -3.32819000     -1.99315000      1.69332000
 Ni     -0.44473300     -1.70567000      3.99036000
 Ni     -3.46605000      1.15793000     -1.80711000
 Ni      1.25998000     -2.38586000      1.97925000
  C     -1.30950000      5.29663000     -2.38306000
  O     -1.17233000      5.99948000     -3.45122000
  C      1.94569000     -5.36342000     -2.26108000
  O      2.01990000     -6.36466000     -3.06466000
  C      3.93539000      3.21144000     -3.49615000
  O      4.94643000      3.93422000     -3.84961000
  C      5.02004000     -3.38179000     -0.38427600
  O      6.04958000     -4.21398000     -0.48321900
  C      2.91615000     -5.23331000     -1.23228000
  O      3.78461000     -6.22014000     -1.12340000
  C     -3.42371000     -4.08193000     -1.59038000
  O     -4.01250000     -5.23733000     -1.68299000
  C     -2.86954000      4.87831000      2.36097000
  O     -3.94273000      5.69617000      2.50484000
  C      2.25703000     -2.88496000     -4.71776000
  O      2.82407000     -3.61076000     -5.62254000
  C      5.87134000     -0.85670100      0.53757300
  O      6.88200000     -1.41048000      1.01767000
  C      4.05465000      3.85284000      0.87360900
  O      4.75842000      4.87470000      1.10456000
  C     -4.58829000     -0.76309000     -4.07554000
  O     -5.75227000     -1.28418000     -4.27586000
  C      4.71675000     -2.34675000     -2.98650000
  O      5.68795000     -3.09575000     -3.35429000
  C     -4.09454000     -2.54746000      3.82909000
  O     -4.73254000     -3.57379000      4.27326000
  C      4.85376000     -0.87464600     -2.76352000
  O      6.05842000     -0.38464600     -2.91486000
  C      0.36286200     -3.50401000      4.51411000
  O      0.31246900     -4.20148000      5.60982000
  C      5.80749000      0.65633300      0.33240200
  O      7.00901000      1.01354000     -0.00920936
  C     -1.56418000      5.40187000      2.56385000
  O     -1.47655000      6.64850000      2.93780000
  C     -2.57317000      5.13515000     -1.66819000
  O     -3.55931000      5.87364000     -2.03591000
  C      5.58488000     -2.04652000     -0.61701700
  O      6.68211000     -1.93618000     -1.24110000
  C      1.12653000     -2.05866000     -5.05928000
  O      0.76477500     -2.05109000     -6.29806000
  C     -1.68325000      3.46430000      4.68251000
  O     -1.40974000      4.34832000      5.57308000
  C     -0.91866600      0.18068000      5.55388000
  O     -0.96635200      0.46947600      6.79120000
  C     -3.80832000      0.00064443     -4.96861000
  O     -4.30026000      0.22634600     -6.13187000
  C     -2.65659000      3.41711000     -3.67157000
  O     -3.45259000      4.36853000     -3.98112000
  C     -1.99316000     -5.45537000      0.90276000
  O     -2.74236000     -6.49837000      0.99147400
  C      2.30339000      4.63109000      2.67947000
  O      3.05117000      5.61467000      2.95027000
  C      2.93788000     -2.79901000      3.97871000
  O      3.87162000     -3.34348000      4.71591000
  C      1.70600000     -4.11595000      3.89704000
  O      2.26290000     -5.10318000      4.52550000
  C      3.11782000     -4.51396000      1.92187000
  O      3.96243000     -5.09215000      2.68942000
  C     -1.65277000      2.95519000     -4.66832000
  O     -1.71037000      3.56549000     -5.80242000
  C      5.03645000     -0.47758800      3.64675000
  O      6.17655000     -0.57294200      4.24038000
  C      3.00132000      2.94382000     -4.53016000
  O      3.07026000      3.28532000     -5.76697000
  C     -3.87506000     -1.48359000      4.76960000
  O     -4.35969000     -1.47262000      5.96226000
  C     -5.15415000     -0.01224990      2.99791000
  O     -6.25389000      0.21225700      3.62866000
  C     -2.50956000      2.33211000      4.95814000
  O     -2.96918000      2.09145000      6.13255000
  C      1.76561000     -5.05153000      2.35834000
  O      1.50612000     -6.31017000      2.60654000

