110
Energy = -12266.27033492 au
 Ni      0.04622290     -3.77731000     -2.63496000
 Ni     -1.43852000     -0.19347000     -1.28833000
 Ni      0.53474900     -4.56106000      0.01178140
 Ni     -0.46418600      4.13608000     -0.19372300
 Ni     -1.28911000      2.50223000     -2.08546000
 Ni     -3.23520000      0.62555500      0.66291900
 Ni     -1.08071000     -0.91032800      1.26044000
 Ni      0.12346700      3.67220000      2.23684000
 Ni      0.31376700     -1.04413000     -3.33004000
 Ni      3.41623000     -0.58431800     -0.73947600
 Ni      0.68641800     -1.69040000     -0.66989500
 Ni      2.67390000     -2.44894000     -2.38467000
 Ni      3.41475000      2.31181000     -1.73079000
 Ni      2.10200000     -0.15645800      3.97472000
 Ni      1.45831000      0.26439700      1.18356000
 Ni      2.66962000      0.34616700     -3.17997000
 Ni      1.28675000      3.52422000     -1.98287000
 Ni     -2.09621000     -2.25934000     -2.86703000
 Ni      3.76989000     -1.16926000      1.77629000
 Ni     -1.72264000     -3.09247000     -0.51999300
 Ni      3.91219000      1.41164000      1.12886000
 Ni      0.96187300      0.92087700     -1.33974000
 Ni     -2.11168000      0.42555200     -3.97194000
 Ni     -3.76871000     -1.44714000     -0.96284400
 Ni      2.30956000      2.31310000      2.85908000
 Ni     -0.39210700      0.99420200      3.04758000
 Ni      2.80365000     -3.11622000      0.02021660
 Ni     -1.32415000     -3.55721000      1.89258000
 Ni     -3.18889000      3.20483000      0.21462700
 Ni      1.89013000      3.08054000      0.49374100
 Ni     -2.80645000      2.47998000      2.64322000
 Ni     -2.95367000      0.03312330      3.29970000
 Ni      0.58921100      1.78932000     -3.96712000
 Ni     -0.76964900      1.66943000      0.52762900
 Ni     -3.51066000     -2.22816000      1.40791000
 Ni     -0.58948100     -1.57497000      3.86080000
 Ni     -3.72134000      1.26683000     -2.08896000
 Ni      1.15583000     -2.20139000      1.87218000
  C     -2.77495000      1.71337000     -5.28074000
  O     -2.65564000      1.98770000     -6.53010000
  C      0.54365800     -5.64853000     -3.12094000
  O      1.03705000     -6.40853000     -4.03176000
  C      4.11740000      2.94632000     -3.41562000
  O      5.06017000      3.79260000     -3.66140000
  C     -4.17012000     -0.17549500     -4.11080000
  O     -4.99463000     -0.11515300     -5.10888000
  C      3.26342000      2.35558000     -4.45654000
  O      3.38339000      2.72976000     -5.67806000
  C     -4.38153000      2.46521000     -3.36405000
  O     -5.40569000      3.24638000     -3.35245000
  C      3.77387000      0.34981000      4.67978000
  O      3.99931000      0.71328400      5.90022000
  C     -3.38938000      4.49013000      1.64250000
  O     -3.98929000      5.64537000      1.92727000
  C      2.94982000     -5.67965000     -1.09359000
  O      3.86179000     -6.55625000     -1.34417000
  C     -2.98436000     -4.68073000      1.06509000
  O     -3.21274000     -5.87041000      0.63169200
  C     -4.90529000      2.46500000      0.53187700
  O     -6.13816000      2.86012000      0.78861900
  C     -1.66522000      3.99244000     -3.20079000
  O     -2.51343000      4.96277000     -3.15770000
  C      0.42380700     -6.53012000     -1.94615000
  O      1.00900000     -7.64059000     -1.66979000
  C      1.06161000      0.12313900      5.85798000
  O      1.44394000      0.61734900      6.97042000
  C     -3.72632000      2.68746000     -4.69476000
  O     -3.95306000      3.84147000     -5.26674000
  C      0.08510490      3.25135000     -5.15151000
  O      0.46368700      3.67825000     -6.30238000
  C      4.71055000     -1.53076000     -1.84986000
  O      5.99570000     -1.65453000     -2.03999000
  C      0.48107600     -1.84378000     -5.16413000
  O      0.63754300     -1.37861000     -6.35314000
  C      2.00483000     -5.94460000      0.04809960
  O      2.11829000     -7.10449000      0.59878900
  C     -4.84134000      1.51072000      2.97734000
  O     -5.73019000      2.35526000      3.37291000
  C     -2.54286000      1.63131000      4.67164000
  O     -2.79497000      1.96846000      5.91777000
  C     -0.72383400     -5.79838000     -1.19404000
  O     -1.60134000     -6.73493000     -1.25585000
  C      3.69432000      3.51499000      2.31956000
  O      4.33890000      4.63077000      2.69851000
  C      0.36063100     -3.22207000     -4.71631000
  O      0.44278200     -4.14583000     -5.61742000
  C      2.91168000     -4.59210000     -2.44132000
  O      3.45289000     -5.29739000     -3.47582000
  C     -4.48523000     -4.20351000      1.44151000
  O     -5.21215000     -4.82894000      2.28258000
  C     -5.06766000      0.04084700      2.87904000
  O     -6.19600000     -0.56050500      2.94491000
  C      1.41783000      5.01050000      1.76458000
  O      1.99304000      6.14797000      2.16155000
  C     -2.23722000     -2.36843000      5.29903000
  O     -2.37211000     -3.20636000      6.26868000
  C     -1.12261000      3.93894000     -4.60323000
  O     -1.75729000      4.58462000     -5.54765000
  C      4.98526000      0.47677600      3.82511000
  O      6.00293000      1.18570000      4.13498000
  C      5.57284000     -0.40935300      1.13494000
  O      6.56873000     -0.80555000      0.41984600
  C     -2.54321000     -4.23707000     -2.25308000
  O     -3.36207000     -5.28125000     -2.50038000
  C      2.80625000      4.52891000     -0.83777800
  O      3.40384000      5.76013000     -0.70810700
  C      5.67915000     -0.52138600      2.69616000
  O      6.60160000     -1.17759000      3.30921000
  C     -4.99729000     -3.46038000      0.18329300
  O     -5.65836000     -4.36709000     -0.44056900
