#B3LYP/6-31+G(d) OPT FREQ

110, Energy = -10123.08035058 au

0 1
 Ni      0.08868730     -3.47087000     -2.23382000
 Ni     -1.36624000     -0.22804900     -1.15806000
 Ni      0.49499300     -4.16648000      0.22434500
 Ni     -0.46950000      4.16864000     -0.22052700
 Ni     -1.13995000      2.23853000     -1.90532000
 Ni     -3.03619000      0.49648300      0.65829300
 Ni     -0.94636100     -0.86097600      1.28505000
 Ni     -0.07136010      3.46610000      2.23279000
 Ni      0.29532600     -0.95552500     -2.96900000
 Ni      3.02889000     -0.49622500     -0.65881100
 Ni      0.71422800     -1.60845000     -0.53187500
 Ni      2.42509000     -2.33299000     -2.38191000
 Ni      3.28535000      1.99535000     -1.43161000
 Ni      1.82790000     -0.39981900      3.64640000
 Ni      1.36650000      0.22861100      1.15908000
 Ni      2.65194000      0.16105800     -3.14732000
 Ni      1.18250000      3.36944000     -2.04087000
 Ni     -2.03454000     -2.06487000     -2.88096000
 Ni      3.49660000     -1.12953000      1.81421000
 Ni     -1.59132000     -2.69583000     -0.40646600
 Ni      3.71894000      1.33883000      1.06307000
 Ni      0.94657100      0.86116300     -1.28474000
 Ni     -1.81479000      0.40952000     -3.63290000
 Ni     -3.71253000     -1.33898000     -1.05296000
 Ni      2.05167000      2.07414000      2.89156000
 Ni     -0.29499300      0.96110400      2.98783000
 Ni      2.82201000     -2.99767000      0.07788220
 Ni     -1.17167000     -3.36725000      2.05263000
 Ni     -2.81703000      2.98680000     -0.09073670
 Ni      1.59157000      2.70132000      0.40818600
 Ni     -2.40952000      2.31837000      2.38825000
 Ni     -2.64130000     -0.15456000      3.14458000
 Ni      0.52856600      1.51756000     -3.75954000
 Ni     -0.71367600      1.60826000      0.53178700
 Ni     -3.28599000     -1.99766000      1.41998000
 Ni     -0.53413900     -1.51965000      3.76627000
 Ni     -3.49454000      1.14745000     -1.80948000
 Ni      1.13322000     -2.23653000      1.90231000
  C     -1.77337000      6.09582000      0.75048400
  O     -2.31734000      7.19686000      1.13223000
  C      1.79149000      5.33139000      1.62689000
  O      2.45173000      6.54171000      1.78612000
  C     -5.48845000      1.00593000      0.88381400
  O     -6.79718000      1.12238000      1.11743000
  C      3.93603000     -4.91000000     -1.12002000
  O      4.55471000     -6.02013000     -1.45227000
  C      5.58781000      0.76252700      2.78291000
  O      6.67634000      0.92809700      3.58755000
  C      3.54796000      4.57667000     -0.12508200
  O      4.29322000      5.62051000      0.06460040
  C      4.72932000     -0.59429900      4.12666000
  O      5.68745000     -0.47100900      4.95509000
  C     -1.31287000      2.57990000      5.01704000
  O     -1.49674000      3.01686000      6.22332000
  C     -2.35729000      4.26546000     -3.01139000
  O     -2.75299000      5.20614000     -3.78615000
  C     -4.52615000     -4.11251000      1.37743000
  O     -5.30420000     -5.22986000      1.29662000
  C      2.47067000     -0.54506100     -5.55736000
  O      2.60109000     -0.92666500     -6.78022000
  C      3.37018000      0.55947700      5.44115000
  O      4.33573000      0.68566500      6.37698000
  C      4.87868000     -3.16457000     -2.19397000
  O      6.13156000     -3.45467000     -2.46085000
  C      3.73832000      1.49369000     -4.90254000
  O      4.41737000      2.04206000     -5.92270000
  C      0.68856500     -4.62173000      3.56786000
  O      1.10187000     -5.48583000      4.45366000
  C      3.25170000     -4.59924000     -2.97293000
  O      3.82736000     -5.68232000     -3.42186000
  C      5.12740000     -1.19231000     -2.53502000
  O      6.37903000     -1.33990000     -2.81028000
  C      0.27451100      6.57334000      0.05317200
  O      0.91145900      7.72103000      0.21557200
  C      5.33059000     -2.92030000     -0.27133200
  O      6.57087000     -3.13695000     -0.44944000
  C      4.34375000      1.59427000      4.09936000
  O      5.35427000      1.84911000      4.94590000
  C      1.43781000     -5.32493000     -3.24545000
  O      1.89103000     -6.49013000     -3.73343000
  C     -1.16476000     -3.22917000      5.65456000
  O     -1.82798000     -3.84610000      6.57390000
  C      2.12316000     -5.66474000     -1.42412000
  O      2.63561000     -6.85109000     -1.78258000
  C      4.50977000     -2.92341000     -4.12986000
  O      5.76689000     -3.10756000     -4.46959000
  C      0.13342400      1.40949000      5.50366000
  O      0.10015800      1.76572000      6.78995000
  C     -2.98643000     -2.03119000      5.12611000
  O     -3.66755000     -2.63735000      6.04188000
  C      1.41612000     -5.54454000      2.08104000
  O      1.94409000     -6.53740000      2.82972000
  C     -1.56702000      0.09861200      5.77488000
  O     -1.70220000      0.46106900      7.00720000
  C     -5.42323000      2.72808000     -0.04643470
  O     -6.65356000      3.02040000      0.18183000
  C     -5.05329000      1.29675000      2.75792000
  O     -6.28808000      1.50989000      3.10721000
  C      1.92108000      5.62259000     -0.53760400
  O      2.62894000      6.76186000     -0.45770000
  C     -3.81872000      3.10127000     -3.39652000
  O     -4.39963000      3.95762000     -4.23328000
  C     -3.30313000     -4.71824000      0.06245960
  O     -3.92125000     -5.83873000     -0.17563900
  C     -0.38731600      3.37336000     -5.16800000
  O     -0.83510800      4.26626000     -5.97973000
  C      2.72534000      4.53383000      3.09369000
  O      3.45284000      5.60512000      3.37297000
  C      4.06884000      2.90950000     -3.70656000
  O      4.78696000      3.62907000     -4.57461000

