#B3LYP/6-31+G(d) OPT FREQ

110, Energy = -11802.17122640 au

0 1
 Ni      0.10376400     -3.41835000     -2.47937000
 Ni     -1.36977000     -0.23986100     -1.17344000
 Ni      0.53197100     -4.11487000      0.19739600
 Ni     -0.36953300      4.20723000     -0.16592800
 Ni     -1.12307000      2.22194000     -1.90608000
 Ni     -3.18215000      0.54364000      0.67501000
 Ni     -0.96544700     -0.89371100      1.35572000
 Ni     -0.05131570      3.55621000      2.41742000
 Ni      0.37955500     -1.03320000     -3.32416000
 Ni      3.22281000     -0.50713800     -0.78808600
 Ni      0.75966000     -1.62908000     -0.57134600
 Ni      2.50221000     -2.44118000     -2.56243000
 Ni      3.43776000      2.05170000     -1.41701000
 Ni      1.80523000     -0.35134800      3.82428000
 Ni      1.39010000      0.24165500      1.18600000
 Ni      2.94146000      0.16269300     -3.54464000
 Ni      1.41406000      3.44657000     -2.13558000
 Ni     -1.93112000     -2.10175000     -2.99162000
 Ni      3.47373000     -1.12197000      1.75680000
 Ni     -1.62516000     -2.81003000     -0.42251700
 Ni      3.81882000      1.61927000      1.09544000
 Ni      1.01418000      0.86577300     -1.36321000
 Ni     -1.78264000      0.38518200     -3.66445000
 Ni     -3.69163000     -1.36922000     -1.06016000
 Ni      2.07290000      2.15408000      2.94921000
 Ni     -0.32857300      1.01398000      3.20363000
 Ni      2.97019000     -3.15245000     -0.10084700
 Ni     -1.00531000     -3.52674000      2.23529000
 Ni     -3.00915000      2.94345000     -0.04273560
 Ni      1.73210000      2.84659000      0.44072800
 Ni     -2.40829000      2.36282000      2.68196000
 Ni     -2.66560000     -0.08297990      3.45482000
 Ni      0.62322900      1.40861000     -4.01452000
 Ni     -0.71584600      1.63404000      0.58944100
 Ni     -3.32632000     -2.17961000      1.42777000
 Ni     -0.64794500     -1.45619000      4.11961000
 Ni     -3.79769000      1.04926000     -1.89090000
 Ni      1.19990000     -2.43319000      2.08916000
  C      3.17687000     -4.67326000     -3.02175000
  O      3.85366000     -5.40387000     -3.83947000
  C      3.13024000     -4.97939000     -1.61333000
  O      3.51756000     -6.16880000     -1.31502000
  C     -5.35605000      1.71857000      0.38036100
  O     -6.56395000      1.35523000      0.59771200
  C      3.97613000      3.96354000      1.37532000
  O      4.36736000      4.91722000      2.13656000
  C     -5.18938000      3.17396000      0.48129300
  O     -6.22488000      3.90436000      0.67151400
  C      2.34599000     -3.51142000     -4.48279000
  O      2.71004000     -4.34328000     -5.37391000
  C      0.38747900      0.54026300      6.01464000
  O      0.18983400      1.59648000      6.73605000
  C     -2.27049000      4.14333000      4.30568000
  O     -2.46464000      4.38540000      5.55695000
  C     -4.12589000     -1.61153000      4.46732000
  O     -4.64130000     -1.97462000      5.59143000
  C     -3.40067000     -4.46289000     -0.09039700
  O     -3.93895000     -5.58400000     -0.38051000
  C     -0.43716500     -3.09965000     -4.81630000
  O     -0.21761400     -3.95348000     -5.75631000
  C      5.02711000      1.54372000     -3.77528000
  O      5.99955000      2.32671000     -4.19289000
  C     -5.35299000      0.45657500     -3.41382000
  O     -5.76016000      0.07700140     -4.57299000
  C      1.74848000     -2.28885000     -5.07232000
  O      1.93040000     -2.33565000     -6.38997000
  C      2.94461000      5.29361000     -2.31617000
  O      3.44731000      6.45287000     -2.09466000
  C      1.53331000     -4.22332000      3.34345000
  O      2.47198000     -4.70786000      4.07865000
  C     -2.45205000      1.66894000      4.89819000
  O     -2.64092000      2.04265000      6.12618000
  C      3.29673000      4.43970000     -3.36516000
  O      4.19031000      4.64009000     -4.26698000
  C     -6.14829000      0.83920100     -2.34560000
  O     -7.39398000      0.95131700     -2.09097000
  C      4.95184000      1.79565000      3.20862000
  O      6.09514000      1.94386000      3.78471000
  C      4.31131000      3.91610000     -0.06542640
  O      5.04816000      4.88377000     -0.48623500
  C      0.29575900     -4.94589000      3.24463000
  O      0.18701500     -6.09013000      3.82752000
  C      3.78655000      1.82564000     -4.55703000
  O      3.99961000      2.28342000     -5.72247000
  C      0.64243900      0.77918700     -5.93730000
  O      0.09394420      0.85006500     -7.10296000
  C     -0.14512500     -1.71246000     -5.36303000
  O     -0.39633200     -1.35907000     -6.56161000
  C      3.60321000     -0.62624500     -5.29243000
  O      4.23136000     -1.24723000     -6.24631000
  C      1.95973000      0.08824860     -5.87044000
  O      2.35842000     -0.04394930     -7.09163000
  C     -2.06246000     -3.04122000      4.99081000
  O     -2.55142000     -3.42319000      6.10743000
  C     -4.82958000     -3.96442000      2.08828000
  O     -5.39417000     -5.05111000      1.68828000
  C      5.20937000     -1.77900000     -0.83904400
  O      6.44134000     -1.76219000     -1.11173000
  C      1.81862000      0.10900400      5.98213000
  O      2.35579000      0.27889500      7.13228000
  C     -0.85942300     -0.32554600      5.76631000
  O     -1.49913000     -0.28499000      6.87712000
  C      1.35948000      5.50527000      0.90550700
  O      1.92848000      6.65679000      0.95117800
  C      0.46938900      3.45279000      4.68951000
  O      0.24414700      4.01401000      5.81594000
  C      3.60455000     -4.64020000      1.73099000
  O      4.31380000     -5.60381000      2.20891000
  C      5.13579000      0.19670000     -3.03233000
  O      6.22850000     -0.46621200     -3.11007000

