110
Energy = -12185.97760669 au
 Ni      0.00946433     -3.36410000     -2.46790000
 Ni     -1.46846000     -0.27456300     -1.18605000
 Ni      0.59723600     -4.14927000      0.48431900
 Ni     -0.88230800      4.50262000     -0.57224900
 Ni     -1.35255000      2.37536000     -1.88255000
 Ni     -3.23043000      0.48453000      0.64339900
 Ni     -0.96372300     -0.93534500      1.37437000
 Ni     -0.20004500      3.81517000      2.64246000
 Ni      0.21472600     -1.12045000     -3.28854000
 Ni      3.43933000     -0.55034100     -0.61997700
 Ni      0.75415400     -1.65591000     -0.47207000
 Ni      2.40192000     -2.32470000     -2.31222000
 Ni      3.55766000      2.00241000     -1.48725000
 Ni      1.80175000     -0.57017900      4.13234000
 Ni      1.39787000      0.16525500      1.28016000
 Ni      2.64151000      0.15051900     -3.09590000
 Ni      1.19615000      3.93059000     -1.95986000
 Ni     -2.17326000     -2.12508000     -3.27637000
 Ni      3.94186000     -1.10249000      1.92076000
 Ni     -1.80258000     -2.98468000     -0.26890400
 Ni      3.71933000      1.33107000      0.97101700
 Ni      0.96235900      0.87920100     -1.24202000
 Ni     -2.26215000      0.33716600     -3.67634000
 Ni     -3.97586000     -1.28352000     -1.39762000
 Ni      1.90525000      2.13261000      2.93566000
 Ni     -0.40256800      1.12061000      3.44846000
 Ni      3.08916000     -3.08546000      0.37888000
 Ni     -1.19166000     -3.48997000      2.40452000
 Ni     -3.35055000      3.24294000     -0.09195860
 Ni      1.61762000      2.90304000      0.31811000
 Ni     -2.58845000      2.54763000      2.50093000
 Ni     -2.71724000     -0.18106200      3.05481000
 Ni      0.45810500      1.54792000     -3.67236000
 Ni     -0.81933300      1.70694000      0.66264100
 Ni     -3.57768000     -2.20130000      1.37615000
 Ni     -0.51574300     -1.85117000      3.98209000
 Ni     -3.92440000      1.28111000     -1.93332000
 Ni      1.29406000     -2.46234000      2.17124000
  C     -3.98059000      3.96003000      3.43091000
  O     -4.91884000      4.84036000      3.38989000
  C      0.07956250     -2.48740000     -4.56832000
  O      0.33316500     -2.75768000     -5.83567000
  C      3.18055000      0.27682000      5.70778000
  O      4.12193000     -0.15040100      6.46869000
  C     -0.15639100      0.95378500      5.60237000
  O     -0.78439300      1.23849000      6.69767000
  C      4.93329000      0.28233900      3.74242000
  O      5.31227000      1.03335000      4.70540000
  C     -0.85267400     -4.06131000      4.83819000
  O     -0.38354000     -4.87633000      5.70063000
  C     -3.49494000     -2.61763000     -4.61678000
  O     -3.60599000     -2.88455000     -5.87268000
  C      5.70648000     -0.55000600      2.91224000
  O      6.98282000     -0.70205200      3.00024000
  C     -5.22065000     -0.58182500      1.63233000
  O     -6.39010000     -1.09876000      1.75972000
  C     -2.37127000      5.80869000     -1.11197000
  O     -2.98779000      6.60256000     -1.90050000
  C     -5.19675000     -1.85693000     -2.67081000
  O     -6.46394000     -1.62175000     -2.66579000
  C     -4.05699000     -0.02785810     -3.93058000
  O     -4.91496000     -0.29416500     -4.93898000
  C     -5.39992000      0.98482100      1.74584000
  O     -6.04114000      1.48453000      2.73997000
  C      5.39539000      0.04449110     -0.83858500
  O      6.53912000     -0.49497800     -0.57155600
  C     -0.50835600      2.88905000      4.92053000
  O     -1.17085000      3.21088000      5.98823000
  C     -2.94256000     -4.65298000      0.21555600
  O     -3.02997000     -5.84881000     -0.25534800
  C      1.23500000     -4.84658000      2.59527000
  O      0.83965600     -5.66673000      3.50274000
  C      2.22837000     -4.67424000      2.15192000
  O      3.30055000     -5.31578000      2.43404000
  C     -3.60983000      4.96776000      0.70843300
  O     -4.63943000      5.66350000      1.03047000
  C     -0.31789900      5.19099000     -2.30495000
  O     -0.73266100      6.15313000     -3.20078000
  C      4.97748000     -2.46209000      0.41418900
  O      6.28877000     -2.88840000      0.12600800
  C     -1.68456000      5.42377000      2.85292000
  O     -2.72104000      6.02564000      3.32157000
  C      0.58161300      3.89308000      4.47079000
  O      1.00307000      4.74143000      5.33951000
  C     -2.53508000      6.01931000      0.40383300
  O     -2.25073000      7.15945000      0.95949200
  C     -3.43343000      3.54449000     -2.23320000
  O     -3.98215000      4.54489000     -3.06156000
  C      1.37315000     -2.75949000      4.51798000
  O      1.79610000     -3.75742000      5.45513000
  C     -0.46117200      6.04401000      2.53378000
  O     -0.21762100      7.30179000      2.57711000
  C     -4.79000000     -2.68765000     -3.87762000
  O     -5.66263000     -3.45458000     -4.48090000
  C      5.38058000      1.14492000     -1.86222000
  O      6.41055000      1.36757000     -2.59846000
  C      0.95670400     -0.07770510      5.76241000
  O      1.24740000     -0.41701500      6.97889000
  C      2.69532000      4.55504000     -1.06464000
  O      3.26461000      5.81134000     -1.02581000
  C     -2.21089000     -3.61842000      4.41383000
  O     -3.30045000     -3.93851000      5.00924000
  C     -3.14470000      3.66759000      4.50905000
  O     -3.10774000      4.15313000      5.69599000
  C     -3.89777000     -4.24004000      1.26321000
  O     -4.75160000     -5.06505000      1.75923000
  C     -5.46932000      1.54034000     -0.88849300
  O     -6.71116000      1.42463000     -1.20536000
  C     -5.44948000      2.11102000      0.57560400
  O     -6.09345000      3.16838000      0.92140900
