#B3LYP/6-31+G(d) OPT FREQ

110, Energy = -11992.88043630 au

0 1
 Ni      0.07226250     -3.44277000     -2.19026000
 Ni     -1.46449000     -0.26343200     -1.19181000
 Ni      0.24764400     -4.29263000      0.29813300
 Ni     -0.46134200      4.46799000     -0.10756000
 Ni     -1.22003000      2.36446000     -1.94984000
 Ni     -3.26578000      0.45299500      0.74318800
 Ni     -1.02699000     -0.94210300      1.30173000
 Ni     -0.06057740      3.54012000      2.46763000
 Ni      0.27473600     -0.92143400     -2.98136000
 Ni      3.30614000     -0.60321900     -0.60894000
 Ni      0.74731000     -1.65771000     -0.49754500
 Ni      2.64738000     -2.35647000     -2.37104000
 Ni      3.25735000      1.99549000     -1.37222000
 Ni      2.12927000     -0.51273400      3.84111000
 Ni      1.40881000      0.23405900      1.23052000
 Ni      2.88062000      0.09193080     -3.09235000
 Ni      1.09221000      3.63433000     -1.99345000
 Ni     -2.19435000     -2.25503000     -2.92908000
 Ni      3.62565000     -1.04764000      2.00508000
 Ni     -1.98118000     -2.96190000     -0.44667100
 Ni      3.79533000      1.35724000      1.29352000
 Ni      0.96578500      0.89237100     -1.29786000
 Ni     -2.02282000      0.63667400     -3.69086000
 Ni     -4.09893000     -1.21539000     -1.25740000
 Ni      2.38091000      2.25103000      3.07608000
 Ni     -0.29144100      1.02801000      3.24863000
 Ni      2.78808000     -3.22817000      0.30912900
 Ni     -1.57520000     -3.65857000      2.15621000
 Ni     -2.93413000      3.20786000      0.08383510
 Ni      1.68427000      2.93346000      0.49366600
 Ni     -2.39482000      2.28598000      2.46421000
 Ni     -2.98374000     -0.40439600      3.18452000
 Ni      0.42339600      1.70150000     -3.85390000
 Ni     -0.72420300      1.66374000      0.54413700
 Ni     -3.73019000     -2.27918000      1.42425000
 Ni     -0.48101300     -1.57649000      3.74076000
 Ni     -3.75073000      1.12665000     -1.74237000
 Ni      1.17716000     -2.32382000      2.01407000
  C      2.92099000     -4.11546000      3.06649000
  O      3.56154000     -4.76922000      3.99047000
  C     -4.63957000     -0.37748300     -3.97386000
  O     -5.03165000     -0.25983600     -5.18238000
  C      4.91659000      0.59931800      3.67456000
  O      6.17762000      0.43576700      3.56095000
  C     -1.40864000     -5.81296000     -0.55773900
  O     -2.16958000     -6.55470000     -1.27558000
  C     -1.58390000      3.87277000     -4.13663000
  O     -1.85050000      4.85492000     -4.93944000
  C     -0.73743100      2.00597000      5.03534000
  O     -0.94784000      1.71023000      6.26355000
  C      3.04799000     -4.71855000      1.64742000
  O      3.55035000     -5.90559000      1.63012000
  C     -5.09862000     -3.69186000      2.22866000
  O     -5.82854000     -4.66705000      1.85985000
  C     -2.34838000      2.57396000     -4.47600000
  O     -3.21822000      2.72953000     -5.41220000
  C      4.86333000     -2.14322000     -2.77503000
  O      5.62691000     -2.98987000     -3.37548000
  C     -2.26032000      5.27212000      1.25862000
  O     -2.75949000      6.41580000      1.56517000
  C     -5.24716000      2.99412000     -0.14163300
  O     -6.31437000      3.43260000      0.40357900
  C     -5.31410000     -1.04884000     -2.89776000
  O     -6.53957000     -1.42741000     -3.05362000
  C     -4.44495000     -3.44568000      3.53645000
  O     -4.80467000     -4.62270000      4.10559000
  C     -0.85445000     -6.26956000      0.65983600
  O     -1.17003000     -7.37773000      1.22026000
  C      0.62424700      4.33688000      4.54040000
  O      1.10747000      5.10785000      5.44049000
  C      5.10125000     -0.52320900     -2.80957000
  O      6.09399000      0.07998360     -3.35139000
  C     -3.26313000     -4.35206000     -2.12322000
  O     -3.92981000     -5.46216000     -2.01989000
  C     -1.65525000     -4.70497000      4.13882000
  O     -2.59937000     -5.24990000      4.81240000
  C     -5.75658000      0.55141300     -0.99701200
  O     -7.00163000      0.90677100     -0.90021700
  C     -5.77546000     -1.63915000      1.24504000
  O     -6.84593000     -1.63385000      1.92542000
  C      2.12209000     -2.89143000      4.20013000
  O      2.18512000     -3.49281000      5.40009000
  C     -0.08070560      6.74721000     -0.35183300
  O      0.81868500      7.62881000     -0.08170520
  C      5.26143000     -1.38190000     -1.37631000
  O      6.36033000     -1.57849000     -0.73621100
  C      3.13071000      4.17271000      2.50449000
  O      3.85190000      5.12186000      3.05779000
  C      2.19827000      5.01653000     -0.35802900
  O      2.97304000      6.06838000     -0.16596900
  C     -0.61255300      3.52410000      4.99395000
  O     -1.47629000      4.17713000      5.70282000
  C     -0.57592700      4.70332000     -3.00169000
  O     -0.64093600      6.07645000     -3.34779000
  C     -2.95175000     -4.97698000      1.49417000
  O     -3.34567000     -6.10790000      1.96105000
  C      0.46997600      2.99779000     -5.86875000
  O     -0.22043900      3.91046000     -6.46063000
  C      4.27495000      2.03453000      3.78986000
  O      4.94645000      2.58669000      4.74074000
  C     -3.17900000     -4.01325000     -3.50576000
  O     -3.69293000     -4.72315000     -4.45230000
  C     -3.83137000     -2.20345000      4.12142000
  O     -4.06605000     -2.34848000      5.36660000
  C     -4.89287000      0.46696100      2.48869000
  O     -6.12899000      0.65240800      2.82872000
  C     -3.69884000     -4.35641000      0.33116800
  O     -4.76574000     -4.88989000     -0.15310500
  C      3.96930000     -0.27770300      4.53914000
  O      4.48972000     -0.24528200      5.71433000

