#B3LYP/6-31+G(d) OPT FREQ

110, Energy = -12061.89397456 au

0 1
 Ni      0.25283700     -3.60979000     -2.49958000
 Ni     -1.36872000     -0.24307200     -1.23875000
 Ni      0.51681800     -4.54270000      0.48943600
 Ni     -0.26189700      4.18494000     -0.22899800
 Ni     -1.04373000      2.37596000     -1.99697000
 Ni     -3.23662000      0.58169900      0.71473600
 Ni     -0.97789100     -0.90052200      1.30445000
 Ni      0.17055900      3.74070000      2.28747000
 Ni      0.27224600     -1.11588000     -3.29969000
 Ni      3.38985000     -0.63942900     -0.66596200
 Ni      0.75130400     -1.68530000     -0.54853100
 Ni      2.51921000     -2.46710000     -2.38684000
 Ni      3.30511000      2.15446000     -1.72924000
 Ni      2.23668000     -0.44184800      3.73963000
 Ni      1.49014000      0.24086000      1.20312000
 Ni      2.66627000      0.38006300     -3.25551000
 Ni      1.29347000      3.90232000     -2.29915000
 Ni     -2.04027000     -2.40090000     -3.15384000
 Ni      3.89271000     -1.05289000      1.99958000
 Ni     -1.64255000     -2.98043000     -0.43541000
 Ni      4.02150000      1.31155000      1.02684000
 Ni      1.00720000      0.91400400     -1.31990000
 Ni     -1.81481000      0.41663400     -3.85129000
 Ni     -3.64348000     -1.41406000     -1.12478000
 Ni      2.25471000      2.21367000      2.83995000
 Ni     -0.29254300      1.06829000      3.15400000
 Ni      3.04350000     -3.01469000      0.11566300
 Ni     -1.06373000     -3.66024000      2.14531000
 Ni     -3.05151000      3.19092000     -0.25321800
 Ni      1.88486000      3.00129000      0.45619800
 Ni     -2.41982000      2.33005000      2.53830000
 Ni     -2.74419000     -0.25426400      3.42785000
 Ni      0.52381300      1.81272000     -3.88801000
 Ni     -0.71082300      1.69705000      0.56782300
 Ni     -3.32063000     -2.29572000      1.59440000
 Ni     -0.54971400     -1.55104000      3.77791000
 Ni     -3.49020000      1.36754000     -1.92028000
 Ni      1.30259000     -2.43946000      2.10935000
  C      3.79010000      2.46934000     -3.71070000
  O      4.58010000      2.49785000     -4.72079000
  C      0.46322600     -2.95877000     -4.75478000
  O      1.05722000     -3.72683000     -5.59899000
  C     -4.95246000      1.93967000      1.10434000
  O     -6.21058000      1.80937000      1.33096000
  C      5.06575000     -1.80277000     -1.54939000
  O      5.93475000     -2.02940000     -2.46246000
  C      3.90501000     -0.10865500      4.47234000
  O      4.55824000      0.14044800      5.55125000
  C     -1.05188000     -5.81432000     -0.59702400
  O     -1.43264000     -7.02147000     -0.42258500
  C      5.34520000     -1.79106000     -0.06910980
  O      6.53290000     -1.98373000      0.37898600
  C      1.91802000      3.66126000     -4.75798000
  O      2.35571000      3.95927000     -5.92009000
  C     -1.83990000      1.89861000      4.71081000
  O     -1.92230000      2.42555000      5.91311000
  C      0.49991800     -4.55045000      3.40839000
  O      0.79445500     -4.89493000      4.61176000
  C      1.05334000      5.57368000      2.69648000
  O      0.97664800      6.78959000      2.26480000
  C     -3.52748000     -3.88829000     -2.39373000
  O     -3.99906000     -4.93598000     -2.95995000
  C      3.52368000      3.88922000      1.78138000
  O      3.72141000      5.16187000      1.81448000
  C      1.71524000      5.67412000      0.01132800
  O      2.30888000      6.61194000      0.65781600
  C      0.05478340      4.04040000     -4.92772000
  O      0.21757500      4.65672000     -6.08129000
  C      3.13053000      3.93628000     -3.74381000
  O      3.78331000      5.03567000     -3.60977000
  C      0.93445100     -5.35635000      2.18469000
  O      1.45184000     -6.52250000      2.38840000
  C     -2.89956000     -1.17547000      5.47653000
  O     -3.82686000     -1.74965000      6.13486000
  C      4.43706000      3.41851000      2.92833000
  O      5.11428000      4.27689000      3.59495000
  C      0.02780130      4.65922000     -3.42887000
  O     -0.54576100      5.76807000     -3.72555000
  C      5.03081000      0.25949700      3.43313000
  O      6.23535000     -0.19345800      3.41246000
  C     -3.93940000      0.10702600     -4.82084000
  O     -4.46992000     -0.03774180     -5.98646000
  C     -4.03217000      3.50925000     -2.51978000
  O     -4.63808000      3.82655000     -3.61422000
  C      2.90495000     -2.83110000      3.60337000
  O      3.27351000     -3.84793000      4.35917000
  C      1.78783000      4.94384000      3.71697000
  O      2.53185000      5.60641000      4.52303000
  C     -0.98730900      2.84746000     -4.91904000
  O     -1.83977000      3.18247000     -5.81301000
  C      2.09378000     -4.94504000     -2.49768000
  O      2.47097000     -6.07824000     -3.01440000
  C     -2.90860000     -4.56602000      0.91062500
  O     -3.49266000     -5.74982000      0.80564500
  C      5.00199000      1.93597000      3.11812000
  O      6.03752000      2.26323000      3.79615000
  C      6.03619000      0.39138700      1.18724000
  O      7.19619000      0.54463900      0.70129400
  C      3.53513000     -5.14381000     -0.82265500
  O      4.46385000     -6.02638000     -0.84859900
  C     -3.74806000      4.57988000     -1.58698000
  O     -3.93756000      5.84885000     -1.65906000
  C     -0.43204400     -1.84930000     -5.25383000
  O     -0.82508000     -1.64860000     -6.45647000
  C     -1.88054000     -4.16344000     -4.66107000
  O     -1.74294000     -4.28779000     -5.93390000
  C     -4.08613000     -2.63777000      3.60665000
  O     -4.89465000     -3.43911000      4.18212000
  C      2.17775000      5.25231000     -1.33760000
  O      2.88539000      6.20980000     -1.85594000

