110
Energy = -12334.87978602 au
 Ni      0.13738400     -3.60697000     -2.22292000
 Ni     -1.51967000     -0.18713200     -1.30935000
 Ni      0.57079700     -4.60803000      0.31749500
 Ni     -0.48149700      4.41799000     -0.07251560
 Ni     -1.30389000      2.48390000     -2.04065000
 Ni     -3.47849000      0.45980800      0.78579200
 Ni     -1.05288000     -0.81719400      1.26122000
 Ni     -0.18174300      3.61000000      2.26247000
 Ni      0.32803500     -1.09621000     -3.25168000
 Ni      3.20435000     -0.54202900     -0.70697900
 Ni      0.76859200     -1.63223000     -0.60858800
 Ni      2.53366000     -2.71742000     -2.38269000
 Ni      3.36660000      1.94211000     -1.45577000
 Ni      2.16528000     -0.10798300      3.69697000
 Ni      1.43859000      0.32738700      1.18617000
 Ni      3.02053000      0.23053400     -3.34173000
 Ni      1.29585000      3.94995000     -2.17422000
 Ni     -2.29043000     -2.08438000     -3.09415000
 Ni      3.82727000     -1.03241000      1.91659000
 Ni     -1.63394000     -2.80615000     -0.50224500
 Ni      3.77678000      1.47506000      1.27701000
 Ni      0.94008100      0.93007600     -1.39228000
 Ni     -2.18300000      0.23527900     -4.01642000
 Ni     -3.89153000     -1.67957000     -1.19163000
 Ni      2.42145000      2.39417000      3.13416000
 Ni     -0.35222900      1.06422000      3.07015000
 Ni      3.12640000     -3.36039000      0.00915979
 Ni     -1.15817000     -3.32322000      2.00018000
 Ni     -3.16225000      2.86998000      0.05201960
 Ni      1.73416000      2.89390000      0.48531800
 Ni     -2.56964000      2.63024000      3.11147000
 Ni     -2.78675000     -0.33024500      3.25727000
 Ni      0.29729600      1.63223000     -3.92070000
 Ni     -0.82455200      1.70773000      0.51846200
 Ni     -3.51423000     -2.18244000      1.45128000
 Ni     -0.54300400     -1.59017000      3.88727000
 Ni     -3.93198000      0.89020300     -2.06525000
 Ni      1.26265000     -2.20841000      1.83680000
  C     -5.02621000      1.36918000      1.64948000
  O     -5.96309000      0.84501500      2.35820000
  C      3.22401000      4.10968000      3.15371000
  O      3.44316000      4.88432000      4.14640000
  C      0.65946000     -1.88372000     -5.01128000
  O      1.03342000     -2.92047000     -5.66935000
  C     -0.69606600      3.50214000     -4.68326000
  O     -0.99117000      3.43502000     -5.93181000
  C      0.23248700     -0.69670300     -5.89368000
  O      0.93877900     -0.27701600     -6.86501000
  C     -4.21361000      0.56952500     -4.10633000
  O     -4.83822000      1.02018000     -5.11843000
  C     -3.72211000     -2.14030000      3.78248000
  O     -4.46238000     -2.65320000      4.74461000
  C      4.67969000      1.52246000      3.51977000
  O      5.55365000      2.45268000      3.69212000
  C      1.43097000      5.34108000     -0.42557500
  O      1.95843000      6.59711000     -0.22445100
  C     -4.58311000     -3.61818000      0.12061100
  O     -5.48463000     -4.38618000      0.62331600
  C     -3.80250000     -1.75662000     -4.31193000
  O     -4.08428000     -2.17828000     -5.48688000
  C     -0.03409580      4.70744000     -3.73861000
  O      0.40870400      5.86513000     -4.08909000
  C     -3.41789000      2.07741000      4.94592000
  O     -4.36730000      2.23528000      5.79106000
  C      3.53501000      4.04386000      1.68428000
  O      4.36685000      4.88488000      1.17816000
  C      4.97567000     -1.98999000      0.11659800
  O      6.26575000     -2.18496000     -0.20866700
  C      3.21402000     -5.43942000      0.40790500
  O      3.83392000     -6.43134000     -0.12978500
  C     -1.26015000     -0.31090100     -5.67665000
  O     -1.82068000     -0.50167000     -6.82814000
  C      3.70500000      0.81970800      4.69666000
  O      3.80571000      0.95307500      5.97218000
  C     -2.32153000      4.52828000      4.32102000
  O     -1.76707000      5.09265000      5.32543000
  C      4.88516000      0.37363800     -2.75237000
  O      6.08830000      0.21191300     -3.26547000
  C      2.99713000      4.94585000     -2.66717000
  O      3.39854000      6.11425000     -2.33322000
  C      3.73547000     -4.52640000     -2.12696000
  O      4.91175000     -5.03623000     -2.08687000
  C     -5.45761000      1.02994000     -0.95540900
  O     -6.75592000      1.29279000     -0.95326600
  C     -1.06936000     -5.57782000     -0.51992800
  O     -1.44323000     -6.81104000     -0.42239400
  C     -4.99102000      2.67975000      0.96361500
  O     -5.95269000      3.48080000      0.68516800
  C     -2.03005000     -2.43880000      5.41851000
  O     -2.03227000     -3.30622000      6.35248000
  C      2.40145000     -4.90728000     -2.69162000
  O      2.07169000     -5.95311000     -3.34470000
  C     -1.56011000      4.14776000     -3.43365000
  O     -2.68455000      4.77202000     -3.38449000
  C      1.41660000     -5.35267000      1.99334000
  O      1.74487000     -6.54989000      2.32377000
  C     -1.17164000      5.48887000      1.72817000
  O     -1.70894000      6.59601000      2.20052000
  C     -4.87425000     -0.84717100     -3.60923000
  O     -6.11094000     -1.11200000     -3.37049000
  C     -3.27383000      4.50591000      3.28677000
  O     -4.19331000      5.32993000      2.94320000
  C      3.34844000      1.58422000     -4.91247000
  O      4.41106000      1.81976000     -5.57652000
  C     -1.92066000      2.10158000      4.91681000
  O     -1.18310000      2.46598000      5.88122000
  C      4.88274000     -0.13321900      3.49671000
  O      5.89637000     -0.75159800      3.99092000
  C     -4.19938000     -3.67580000     -1.34874000
  O     -4.38139000     -4.55798000     -2.26593000
