110
Energy = -11740.03665633 au
 Ni     -0.01257930     -3.57767000     -2.16174000
 Ni     -1.40046000     -0.24628000     -1.15981000
 Ni      0.69741800     -4.42667000      0.34862000
 Ni     -0.38730100      4.52932000     -0.18407600
 Ni     -1.19799000      2.39214000     -2.09509000
 Ni     -3.25463000      0.50118100      0.75460100
 Ni     -0.99123200     -0.88627800      1.33237000
 Ni      0.12643600      3.74463000      2.41843000
 Ni      0.31684700     -0.98160900     -3.12235000
 Ni      3.02587000     -0.51293500     -0.71002500
 Ni      0.71874100     -1.67202000     -0.52027200
 Ni      2.44325000     -2.34464000     -2.50344000
 Ni      3.26005000      1.96604000     -1.45540000
 Ni      1.79826000     -0.31445000      3.73584000
 Ni      1.36782000      0.25980400      1.20228000
 Ni      2.66636000      0.14849700     -3.41688000
 Ni      1.19110000      3.37042000     -2.10807000
 Ni     -2.22902000     -2.08459000     -2.96732000
 Ni      3.60186000     -1.21916000      1.69902000
 Ni     -1.75068000     -2.90071000     -0.48914300
 Ni      3.70970000      1.34006000      1.12818000
 Ni      0.93172800      0.88159400     -1.33331000
 Ni     -1.83567000      0.58182200     -3.67660000
 Ni     -3.89346000     -1.34664000     -1.04275000
 Ni      2.27302000      2.37067000      3.00259000
 Ni     -0.36669300      1.00632000      3.16856000
 Ni      3.07590000     -3.06183000     -0.01114880
 Ni     -1.18554000     -3.49203000      2.08367000
 Ni     -2.74930000      3.09528000     -0.03614350
 Ni      1.66041000      2.93591000      0.46982400
 Ni     -2.37598000      2.41846000      2.68962000
 Ni     -2.79447000     -0.07524510      3.24058000
 Ni      0.55576200      1.70659000     -3.98637000
 Ni     -0.72215800      1.67066000      0.56572800
 Ni     -3.48248000     -1.91317000      1.51939000
 Ni     -0.44847800     -1.59314000      3.90641000
 Ni     -3.46418000      1.16837000     -1.81732000
 Ni      1.15701000     -2.33898000      1.96811000
  C      4.84722000     -2.24544000     -2.75222000
  O      5.97720000     -2.71641000     -3.15428000
  C     -1.85772000      5.53101000     -1.78667000
  O     -2.10781000      6.62793000     -2.41571000
  C     -4.90620000     -1.97822000     -3.19225000
  O     -5.96564000     -2.07519000     -3.89536000
  C      0.62749600      4.28095000      4.64652000
  O      1.20461000      4.93688000      5.58141000
  C     -2.49669000      2.87723000     -4.12469000
  O     -3.36495000      3.47531000     -4.87561000
  C      2.85996000      4.27989000      2.98425000
  O      3.89068000      4.98853000      3.30026000
  C      2.33070000      5.21978000      0.79892800
  O      3.57612000      5.63170000      0.82075000
  C      5.17860000     -3.31853000     -0.35884500
  O      6.04980000     -4.01276000     -1.00552000
  C     -5.20420000     -1.00841000      3.03563000
  O     -6.39517000     -1.30453000      3.41815000
  C     -3.16164000     -2.37263000     -5.22941000
  O     -4.24745000     -2.53840000     -5.90285000
  C     -2.28917000      2.96846000      4.74037000
  O     -3.04582000      3.73639000      5.39892000
  C      4.27324000      1.63139000      3.98717000
  O      5.12167000      1.99385000      4.87543000
  C      3.32408000      1.60058000     -5.24442000
  O      4.45680000      1.59874000     -5.89665000
  C     -2.04020000      1.48522000      5.06838000
  O     -1.97671000      1.42012000      6.35151000
  C     -0.27929600      3.13671000     -5.29471000
  O     -0.44938400      3.69395000     -6.43955000
  C      1.56238000     -1.61763000     -5.03665000
  O      1.51436000     -1.98308000     -6.35027000
  C      2.10235000     -5.56269000     -1.24579000
  O      2.54572000     -6.74400000     -1.49773000
  C     -2.27679000      5.70115000      0.76167300
  O     -2.64054000      6.88325000      1.04391000
  C     -1.26972000      3.78447000     -4.38314000
  O     -1.36057000      5.05941000     -4.38925000
  C      1.23813000      5.83507000     -0.03889360
  O      1.52342000      7.08363000     -0.06751920
  C      1.86531000      5.26849000      2.37952000
  O      1.66380000      6.49964000      2.67862000
  C     -5.53174000     -0.31333800      0.83507000
  O     -6.81132000     -0.40699800      0.73270000
  C      2.10165000      0.97016400     -6.12978000
  O      1.84280000      0.60471600     -7.38569000
  C     -3.35259000     -4.38989000     -1.45377000
  O     -4.47619000     -5.00113000     -1.48283000
  C     -3.08219000     -4.84971000      1.33464000
  O     -3.59004000     -6.03385000      1.30260000
  C      2.86313000      2.85104000     -4.57154000
  O      3.24788000      3.84944000     -5.26422000
  C      1.15635000     -5.65404000      1.87856000
  O      1.66995000     -6.83586000      1.95565000
  C     -0.58691200      3.51242000      4.97850000
  O     -0.66121600      3.46804000      6.26600000
  C     -1.31506000      5.53708000      2.89115000
  O     -1.47944000      6.66384000      3.48056000
  C      1.12230000     -4.89665000      3.16816000
  O      1.71997000     -5.62722000      4.05795000
  C      5.49887000     -2.24133000      0.50810100
  O      6.75258000     -1.96545000      0.63051500
  C      0.38141100     -3.73889000      4.37658000
  O      0.64077500     -4.22325000      5.57573000
  C      0.44814000     -0.16604300      5.82574000
  O      0.40034100      0.17673200      7.06147000
  C     -5.37121000      0.29410600      2.25876000
  O     -6.02287000      1.29101000      2.70287000
  C      4.18781000     -0.70896300     -5.28423000
  O      4.19410000     -1.25324000     -6.45119000
  C     -2.12583000     -5.01436000     -1.89138000
  O     -2.18928000     -6.24725000     -2.24312000
