110
Energy = -12038.47931451 au
 Ni     -0.02496480     -3.45102000     -2.29095000
 Ni     -1.36986000     -0.26310800     -1.20975000
 Ni      0.50129300     -4.22722000      0.36172300
 Ni     -0.47592000      4.43582000     -0.30098100
 Ni     -1.21121000      2.41959000     -2.05424000
 Ni     -3.19404000      0.45157500      0.72751600
 Ni     -0.98399500     -0.95420200      1.28844000
 Ni     -0.13094100      3.76823000      2.22055000
 Ni      0.36268500     -1.02614000     -3.32821000
 Ni      3.25918000     -0.45970500     -0.68507100
 Ni      0.73930100     -1.64108000     -0.53643600
 Ni      2.36538000     -2.25755000     -2.45859000
 Ni      3.50516000      2.03127000     -1.63746000
 Ni      1.80027000     -0.42223700      3.61334000
 Ni      1.38669000      0.22183700      1.12212000
 Ni      2.66044000      0.25285200     -3.56798000
 Ni      1.12239000      3.51809000     -2.46460000
 Ni     -2.34814000     -2.21925000     -3.05486000
 Ni      3.52795000     -1.12072000      1.74310000
 Ni     -1.70939000     -2.96118000     -0.43238300
 Ni      3.84505000      1.42559000      0.86334700
 Ni      0.98719300      0.90177700     -1.40028000
 Ni     -1.72721000      0.33626300     -3.79109000
 Ni     -3.81985000     -1.36666000     -1.15574000
 Ni      2.03404000      2.08808000      2.82467000
 Ni     -0.32844200      0.96557700      2.94819000
 Ni      2.87914000     -3.19025000      0.29641300
 Ni     -1.35050000     -3.67223000      2.18830000
 Ni     -2.82356000      3.23196000     -0.23832400
 Ni      1.67121000      2.89656000      0.36464200
 Ni     -2.52000000      2.55364000      2.32217000
 Ni     -2.66232000     -0.17680800      3.09488000
 Ni      0.48801100      1.62535000     -4.24087000
 Ni     -0.74726400      1.67073000      0.49922000
 Ni     -3.60879000     -2.17378000      1.40111000
 Ni     -0.50458900     -1.83339000      3.80647000
 Ni     -3.45168000      1.16984000     -1.80844000
 Ni      1.15193000     -2.40036000      2.01319000
  C     -3.13387000     -5.18285000      0.71141700
  O     -4.27809000     -5.66938000      0.40891000
  C     -2.49728000      5.55089000     -1.49591000
  O     -3.13840000      6.62169000     -1.27433000
  C     -3.59873000      4.47820000      2.37168000
  O     -4.66553000      5.11618000      2.66982000
  C      5.68923000      0.91107700     -0.78059200
  O      6.84176000      1.29214000     -1.20926000
  C      3.80564000      4.02431000      0.80937900
  O      4.38643000      5.14422000      0.98589100
  C     -3.23861000     -1.60057000     -5.20561000
  O     -4.28110000     -1.87451000     -5.90689000
  C      1.86514000      3.88382000     -4.49287000
  O      2.50736000      4.76227000     -5.17011000
  C     -4.82881000     -2.02292000     -3.18398000
  O     -5.89564000     -2.12175000     -3.94941000
  C      0.58792400      3.73615000     -5.28474000
  O      0.46012300      4.37389000     -6.44565000
  C      5.57666000     -0.50471600     -0.29159100
  O      6.64599000     -1.22273000     -0.29703000
  C     -2.67874000     -4.43296000     -2.67154000
  O     -3.48576000     -5.38213000     -3.01381000
  C     -5.37912000     -0.15649200      1.65526000
  O     -6.34003000      0.62552300      1.98858000
  C      1.10106000     -2.41948000     -4.97288000
  O      0.73306300     -3.22035000     -5.90182000
  C     -2.44498000      5.43431000      2.33655000
  O     -2.78206000      6.65185000      2.00614000
  C      1.44391000     -4.20089000      3.70968000
  O      2.38608000     -4.62897000      4.48766000
  C     -1.86230000      4.03453000     -3.74180000
  O     -2.59488000      4.86822000     -4.44299000
  C      5.16197000      2.35589000     -3.23491000
  O      6.28458000      2.62480000     -3.78036000
  C      0.18203700     -3.82943000      4.48936000
  O      0.05465950     -4.48919000      5.58596000
  C      1.18836000      5.62972000      0.91067600
  O      1.73164000      6.76618000      1.01396000
  C     -0.23853000     -0.30152400     -5.77043000
  O     -0.36276400     -1.14674000     -6.73354000
  C     -1.06881000      5.47852000      2.99675000
  O     -0.92572200      6.56168000      3.66754000
  C     -3.06603000      4.29293000     -2.26428000
  O     -4.18288000      4.71761000     -2.74318000
  C     -0.94494200      3.27284000     -4.91066000
  O     -1.68003000      3.30066000     -5.96045000
  C      2.05872000     -5.04340000      2.20899000
  O      1.95448000     -6.28719000      2.56144000
  C     -2.43178000     -5.38519000      2.00011000
  O     -2.57756000     -6.63225000      2.25526000
  C     -5.06348000     -3.47906000      1.23775000
  O     -5.87570000     -4.47978000      1.41102000
  C      3.95095000      2.84475000     -4.05063000
  O      4.35811000      4.04619000     -4.43434000
  C     -0.46345800      4.83577000     -3.38469000
  O     -0.01390200      5.64612000     -4.32816000
  C     -2.07336000     -5.15716000     -0.40727300
  O     -2.31772000     -6.31944000     -0.90796600
  C      0.62502200      0.85034200     -6.09449000
  O      1.07101000      1.06707000     -7.27936000
  C     -1.07461000      5.75312000     -2.17244000
  O     -1.19844000      6.91142000     -2.72265000
  C      3.44129000     -4.59147000      1.68833000
  O      4.45206000     -5.16861000      2.22571000
  C      2.14222000     -1.37581000     -5.15036000
  O      2.60444000     -1.27502000     -6.34710000
  C     -5.67760000     -1.57283000      1.55151000
  O     -6.89449000     -1.99987000      1.66687000
  C      3.36594000      1.67296000     -4.83459000
  O      3.87125000      1.79019000     -6.00787000
  C     -2.34030000     -4.09493000      4.16171000
  O     -3.02839000     -4.95209000      4.79308000
