110
Energy = -10162.60069415 au
 Ni      0.07708670     -3.46764000     -2.23280000
 Ni     -1.36640000     -0.22858000     -1.15863000
 Ni      0.48590800     -4.16196000      0.22460200
 Ni     -0.47596000      4.16193000     -0.21527100
 Ni     -1.13592000      2.23191000     -1.90074000
 Ni     -3.02149000      0.49272400      0.65323900
 Ni     -0.94602500     -0.86126100      1.28437000
 Ni     -0.07671820      3.47282000      2.23934000
 Ni      0.29375700     -0.95649400     -2.97201000
 Ni      3.03292000     -0.49637100     -0.65642300
 Ni      0.71350500     -1.60803000     -0.53172800
 Ni      2.41825000     -2.32127000     -2.37895000
 Ni      3.27892000      1.98395000     -1.42325000
 Ni      1.81453000     -0.40881900      3.63333000
 Ni      1.36616000      0.22863300      1.15841000
 Ni      2.63908000      0.15059700     -3.14019000
 Ni      1.17786000      3.36575000     -2.04870000
 Ni     -2.04403000     -2.06919000     -2.89085000
 Ni      3.49198000     -1.13278000      1.80171000
 Ni     -1.58866000     -2.69373000     -0.40848500
 Ni      3.71431000      1.34316000      1.05864000
 Ni      0.94597900      0.86091800     -1.28441000
 Ni     -1.82029000      0.41021000     -3.63529000
 Ni     -3.71644000     -1.33930000     -1.06130000
 Ni      2.03914000      2.07395000      2.88324000
 Ni     -0.29432200      0.95888200      2.97083000
 Ni      2.80567000     -2.99113000      0.08639820
 Ni     -1.18079000     -3.36742000      2.05249000
 Ni     -2.80619000      2.98703000     -0.09250510
 Ni      1.58965000      2.69635000      0.41026000
 Ni     -2.40185000      2.32340000      2.38286000
 Ni     -2.63672000     -0.15994000      3.14009000
 Ni      0.52607100      1.52016000     -3.75951000
 Ni     -0.71334500      1.60810000      0.53173900
 Ni     -3.28144000     -1.98813000      1.42761000
 Ni     -0.53084800     -1.52626000      3.75908000
 Ni     -3.49001000      1.13469000     -1.81295000
 Ni      1.13465000     -2.23481000      1.90128000
  C     -2.21456000     -5.04045000     -2.15086000
  O     -2.86943000     -6.12949000     -2.35017000
  C     -4.63970000     -0.56728400     -4.00038000
  O     -5.60818000     -0.66564400     -4.84383000
  C     -1.37093000      3.17430000      4.83282000
  O     -1.53872000      3.55229000      6.04825000
  C     -1.61860000      5.62512000      2.29406000
  O     -2.13424000      6.71994000      2.69138000
  C     -2.45409000     -3.31195000      4.66657000
  O     -3.06436000     -3.94733000      5.59306000
  C      2.76263000      5.19344000     -0.89991100
  O      3.46538000      6.26200000     -0.77335800
  C     -3.56326000      4.17206000     -2.37004000
  O     -4.06111000      5.07447000     -3.13952000
  C      3.55017000      3.94389000      3.77926000
  O      4.21523000      5.02524000      3.97418000
  C      0.15730500      6.16759000      2.93045000
  O      0.79777700      7.27105000      3.13486000
  C      5.24635000     -1.32554000     -1.84257000
  O      6.51363000     -1.49356000     -2.09809000
  C      1.60812000     -3.65501000      4.14700000
  O      2.08667000     -4.53627000      4.95482000
  C      4.74890000     -3.12701000     -2.66599000
  O      6.06309000     -3.40076000     -2.94821000
  C      3.59425000      4.28059000      1.65654000
  O      4.29561000      5.34976000      1.80450000
  C     -0.46982900      3.98360000     -4.42910000
  O     -0.91960000      4.88226000     -5.23211000
  C      1.43490000      5.82145000      0.48152500
  O      2.11638000      6.93171000      0.66863300
  C     -4.16128000     -2.50718000     -4.19797000
  O     -5.09052000     -2.71758000     -5.02005000
  C      4.83965000     -1.35488000     -3.80743000
  O      6.06910000     -1.53667000     -4.12983000
  C     -5.66264000     -1.72085000     -2.58385000
  O     -6.63527000     -1.89551000     -3.38011000
  C     -0.83972300     -6.10364000      2.88546000
  O     -0.40277900     -7.06343000      3.67129000
  C      1.40079000     -5.71374000     -2.32613000
  O      1.89670000     -6.81920000     -2.75101000
  C     -1.16535000     -2.71407000     -5.22244000
  O     -1.05845000     -3.10001000     -6.44459000
  C     -1.66706000     -5.94021000      1.08965000
  O     -2.30265000     -7.04850000      1.01573000
  C      0.99672200     -5.17351000      2.81935000
  O      1.45085000     -6.06970000      3.61919000
  C      1.85907000     -0.44090200     -5.64554000
  O      1.98073000     -0.82044700     -6.86850000
  C     -3.78383000     -1.76514000      4.73901000
  O     -4.47990000     -2.33206000      5.64136000
  C      1.95682000      5.16857000      2.32971000
  O      2.61272000      6.27238000      2.57488000
  C      4.68458000      1.34134000      3.79361000
  O      5.65573000      1.50780000      4.62027000
  C      5.69604000     -1.22254000      0.13374300
  O      6.94944000     -1.41764000     -0.08339640
  C     -5.87739000      1.60007000     -1.24133000
  O     -7.12094000      1.81099000     -0.98881900
  C      2.69900000     -5.67407000     -0.68780000
  O      3.25264000     -6.76110000     -1.07716000
  C     -3.11077000     -4.88310000      0.26082400
  O     -3.79431000     -5.95799000      0.08694480
  C     -0.14393100      6.92730000     -0.31434700
  O      0.51378000      8.01999000     -0.16292500
  C      0.53552000      3.74431000      4.83251000
  O      0.46763300      4.15508000      6.04574000
  C      2.16083000     -5.94890000      1.24101000
  O      2.63024000     -6.83605000      2.04389000
  C     -3.95539000     -3.72514000      3.28445000
  O     -4.65276000     -4.33842000      4.16894000
  C     -3.44260000      2.54899000     -4.28668000
  O     -3.92169000      3.44118000     -5.07969000
