#B3LYP/6-31+G(d) OPT FREQ

110, Energy = -12065.49864794 au

0 1
 Ni      0.06861130     -3.53634000     -2.26886000
 Ni     -1.37654000     -0.23243700     -1.14654000
 Ni      0.51383600     -4.08180000      0.24973800
 Ni     -0.30062100      4.39356000     -0.17309200
 Ni     -1.08684000      2.24353000     -1.89401000
 Ni     -3.26198000      0.54576000      0.76334800
 Ni     -0.98550200     -0.88575300      1.36853000
 Ni     -0.01415110      3.57314000      2.37716000
 Ni      0.34322800     -0.96722800     -3.15873000
 Ni      3.22823000     -0.40577200     -0.69215400
 Ni      0.75734900     -1.61245000     -0.53939600
 Ni      2.66635000     -2.28657000     -2.35806000
 Ni      3.58365000      2.16147000     -1.59669000
 Ni      1.86754000     -0.32767000      3.84527000
 Ni      1.45901000      0.26163300      1.24137000
 Ni      2.89558000      0.03930430     -3.36793000
 Ni      1.37637000      3.48480000     -1.94456000
 Ni     -2.01760000     -2.09855000     -2.86777000
 Ni      3.96407000     -1.04986000      1.77116000
 Ni     -1.69105000     -2.84329000     -0.40110800
 Ni      4.20414000      1.61702000      1.20290000
 Ni      1.03374000      0.89023400     -1.31655000
 Ni     -1.71464000      0.35570400     -3.72819000
 Ni     -3.73607000     -1.45275000     -1.01337000
 Ni      2.18604000      2.26249000      3.14460000
 Ni     -0.31305300      1.05371000      3.26366000
 Ni      3.11253000     -2.88922000      0.09820720
 Ni     -1.25812000     -3.50042000      2.34270000
 Ni     -2.85276000      2.95363000      0.00103028
 Ni      1.74745000      2.85727000      0.51885300
 Ni     -2.52093000      2.33462000      2.70034000
 Ni     -2.77907000     -0.02466870      3.26461000
 Ni      0.60227000      1.39703000     -3.88000000
 Ni     -0.69983200      1.64861000      0.61417900
 Ni     -3.43874000     -2.32100000      1.39481000
 Ni     -0.51242500     -1.58450000      4.07762000
 Ni     -3.63279000      1.12856000     -1.69575000
 Ni      1.14105000     -2.30283000      2.14867000
  C      4.87143000     -2.42257000     -2.26324000
  O      5.92237000     -3.14914000     -2.28213000
  C      2.42694000      4.84553000      2.06216000
  O      3.12709000      5.91910000      1.88333000
  C     -0.00341667     -0.59930500     -5.49663000
  O     -0.54150600     -1.07104000     -6.55969000
  C     -1.68723000     -5.19660000     -2.33015000
  O     -2.03217000     -6.39344000     -2.66226000
  C      5.42709000     -0.33664800      3.16692000
  O      6.44641000     -0.96357900      3.62200000
  C      1.51917000     -0.23050700     -5.83798000
  O      1.61494000      0.01071590     -7.10560000
  C      1.41649000      1.86382000      5.23814000
  O      1.96324000      2.33942000      6.32713000
  C     -1.29833000      3.25381000      4.60641000
  O     -1.07388000      4.17567000      5.46081000
  C     -3.82205000     -4.00229000     -0.51291500
  O     -4.41004000     -5.13168000     -0.69362800
  C      4.68897000      0.70369000      4.23595000
  O      5.45130000      1.16660000      5.16266000
  C      3.38676000      0.34813000      5.37566000
  O      3.74999000      0.28379700      6.66359000
  C      0.06561830      1.32062000      5.77892000
  O     -0.34586500      2.06367000      6.72936000
  C      1.51180000     -3.12834000      4.59684000
  O      2.28508000     -3.44544000      5.53170000
  C      4.31335000      2.62825000     -3.67265000
  O      5.43265000      2.77816000     -4.27766000
  C      5.77084000     -1.16862000      0.79521500
  O      6.95948000     -0.68202200      0.81057800
  C      5.59794000      1.16659000     -0.58934800
  O      6.87592000      1.06223000     -0.82368800
  C      3.52680000      4.05556000      2.93344000
  O      3.98322000      4.66886000      3.97347000
  C     -5.68897000     -3.33346000      1.48793000
  O     -6.26226000     -4.47105000      1.29510000
  C      5.37946000     -2.50258000      0.31211900
  O      6.34460000     -3.29777000     -0.00546771
  C     -2.20649000     -3.30987000      4.51958000
  O     -2.82671000     -3.94492000      5.43241000
  C      0.44002800      6.42858000     -0.01435890
  O      0.63325700      7.56237000     -0.57073800
  C     -3.43020000     -4.74439000      2.14921000
  O     -4.02332000     -5.84076000      1.96090000
  C      2.93916000     -0.54807400     -5.40557000
  O      3.75606000     -0.98058100     -6.24292000
  C      0.87540400      6.00267000      1.32487000
  O      1.04160000      6.96928000      2.16252000
  C      2.53054000      5.22874000     -0.93765500
  O      2.72166000      6.47374000     -0.68257900
  C     -0.50856400     -0.09555610      5.67723000
  O     -0.84853000     -0.34357900      6.89321000
  C     -4.86387000      2.25875000      2.47048000
  O     -5.91880000      2.95379000      2.55424000
  C     -4.92546000      0.91866900      3.05268000
  O     -6.05133000      0.56069400      3.57994000
  C      3.16273000      3.25460000     -4.24485000
  O      3.08235000      4.01354000     -5.25590000
  C     -2.22385000      2.10242000      4.91138000
  O     -2.86150000      1.91607000      5.99940000
  C      4.90265000     -1.09479000     -2.92749000
  O      6.02432000     -0.82013200     -3.46606000
  C      5.42905000      1.27598000      2.81449000
  O      6.48529000      1.98898000      2.90013000
  C      0.64797100     -4.16036000      3.93687000
  O      0.68730400     -5.33900000      4.33121000
  C     -5.34996000      1.29743000     -0.13073700
  O     -6.65644000      1.47082000      0.10810400
  C      4.49739000      3.45355000      1.90187000
  O      5.44280000      4.28254000      1.59657000
  C      3.73086000      4.43017000     -1.22188000
  O      4.80723000      5.13013000     -1.25334000

