#B3LYP/6-31+G(d) OPT FREQ

110, Energy = -10031.10477218 au

0 1
 Ni      0.08013480     -3.46683000     -2.24082000
 Ni     -1.36611000     -0.22855400     -1.15878000
 Ni      0.47892100     -4.15818000      0.22251200
 Ni     -0.49283200      4.16378000     -0.22168700
 Ni     -1.13858000      2.23785000     -1.90454000
 Ni     -3.02113000      0.49297700      0.65376400
 Ni     -0.94607500     -0.86108700      1.28456000
 Ni     -0.08605300      3.46803000      2.23189000
 Ni      0.29225600     -0.96267000     -2.98098000
 Ni      3.02299000     -0.49298000     -0.65550300
 Ni      0.71369100     -1.60807000     -0.53203400
 Ni      2.41722000     -2.32754000     -2.38728000
 Ni      3.28232000      1.97995000     -1.42558000
 Ni      1.81388000     -0.40752700      3.63336000
 Ni      1.36607000      0.22841100      1.15845000
 Ni      2.64185000      0.15165000     -3.13529000
 Ni      1.17393000      3.36356000     -2.05208000
 Ni     -2.04301000     -2.06399000     -2.89485000
 Ni      3.48733000     -1.13454000      1.80612000
 Ni     -1.58610000     -2.69165000     -0.40744000
 Ni      3.71231000      1.34219000      1.05529000
 Ni      0.94574700      0.86082400     -1.28457000
 Ni     -1.82131000      0.40278900     -3.64520000
 Ni     -3.72084000     -1.34161000     -1.06247000
 Ni      2.03810000      2.07118000      2.88262000
 Ni     -0.29439700      0.95549000      2.97131000
 Ni      2.80664000     -2.98850000      0.08813940
 Ni     -1.18019000     -3.36625000      2.04934000
 Ni     -2.80775000      2.99855000     -0.09714180
 Ni      1.58596000      2.68725000      0.40903400
 Ni     -2.40859000      2.33083000      2.37836000
 Ni     -2.63285000     -0.15534600      3.13964000
 Ni      0.52301800      1.52361000     -3.75681000
 Ni     -0.71375700      1.60817000      0.53171500
 Ni     -3.28114000     -1.98574000      1.42529000
 Ni     -0.53030700     -1.51771000      3.76323000
 Ni     -3.48714000      1.13315000     -1.80720000
 Ni      1.13460000     -2.23282000      1.89835000
  C     -2.01162000     -5.62616000      0.59407900
  O     -2.69021000     -6.70743000      0.44126100
  C      5.38596000     -0.67224600      3.36913000
  O      6.35817000     -0.51972700      4.19740000
  C      3.75484000     -5.01914000     -1.09820000
  O      4.28744000     -6.12902000     -1.47072000
  C     -0.52449200     -4.42855000     -4.61217000
  O     -0.41946800     -4.86889000     -5.81253000
  C      4.88531000     -1.68703000     -3.37810000
  O      6.10852000     -1.86514000     -3.66948000
  C     -3.71506000      1.07064000     -5.41697000
  O     -4.67243000      0.94577500     -6.26570000
  C     -0.86442800      6.62652000     -1.25891000
  O     -1.31151000      7.54453000     -2.03314000
  C     -2.78797000     -4.25620000      3.78902000
  O     -3.45666000     -4.88922000      4.68373000
  C     -3.88967000     -2.62713000     -4.50129000
  O     -4.81788000     -2.82824000     -5.30961000
  C     -1.02648000      5.63408000      3.04528000
  O     -1.49990000      6.73793000      3.44688000
  C     -1.26321000      0.05017250      5.82326000
  O     -1.37677000      0.42339200      7.04880000
  C     -1.87499000     -3.01751000      5.28549000
  O     -2.52682000     -3.60510000      6.22056000
  C      1.87471000     -5.08465000      2.37797000
  O      2.35204000     -5.98009000      3.16831000
  C      3.62344000      4.14548000      2.30426000
  O      4.29115000      5.22793000      2.49588000
  C     -5.27696000     -1.60209000     -3.01316000
  O     -6.31943000     -1.80300000     -3.80524000
  C      0.08000510     -2.57876000     -5.11727000
  O      0.19794100     -2.98087000     -6.38871000
  C      4.80613000     -3.40952000     -2.42041000
  O      6.03073000     -3.65868000     -2.65296000
  C     -2.52453000      4.35416000     -2.86781000
  O     -2.98331000      5.23592000     -3.64913000
  C     -4.29505000     -0.61461100     -4.40013000
  O     -5.25412000     -0.74329000     -5.24083000
  C     -1.94924000      6.01624000      0.72203100
  O     -2.45547000      7.14079000      1.09748000
  C      0.21421900      4.49913000     -4.25950000
  O     -0.21208100      5.41689000     -5.04697000
  C     -3.84546000     -1.60242000      4.79739000
  O     -4.51971000     -2.20788000      5.71010000
  C      5.29734000      0.26303200     -2.82333000
  O      6.54644000      0.10639600     -3.08114000
  C      4.04023000     -3.28784000     -4.54373000
  O      4.18417000     -3.69630000     -5.74890000
  C     -2.80962000      5.02403000      2.36355000
  O     -3.37162000      6.14426000      2.72827000
  C      2.04596000     -2.87672000     -4.87606000
  O      2.18109000     -3.26439000     -6.07203000
  C     -4.31281000     -4.19432000      0.68230100
  O     -4.99431000     -5.27400000      0.52793600
  C     -2.59980000      5.69320000     -1.22931000
  O     -3.13089000      6.60128000     -2.00539000
  C      2.18134000     -5.11121000     -2.96670000
  O      2.69934000     -6.21855000     -3.36559000
  C     -2.47114000      3.04380000      4.77383000
  O     -2.59506000      3.42892000      5.99500000
  C     -1.53640000      3.50428000     -4.36527000
  O     -2.01187000      4.35764000     -5.19453000
  C     -4.13546000      4.02597000      3.43222000
  O     -4.70663000      5.09827000      3.84549000
  C     -4.20566000      4.34139000     -1.70450000
  O     -4.78383000      5.27320000     -2.50789000
  C      1.68911000      2.62081000      5.30306000
  O      1.57919000      3.01159000      6.52355000
  C     -1.00102000     -1.06423000     -5.72226000
  O     -0.92862600     -1.38813000     -6.96061000
  C     -1.55350000     -5.56383000     -1.55362000
  O     -2.21939000     -6.64551000     -1.75197000

