#B3LYP/6-31+G(d) OPT FREQ

110, Energy = -12006.05061772 au

0 1
 Ni      0.32685500     -3.67055000     -2.41728000
 Ni     -1.43352000     -0.21107300     -1.22468000
 Ni      0.62612800     -4.21259000      0.43120500
 Ni     -0.62133500      4.34648000     -0.46714500
 Ni     -1.30616000      2.39310000     -2.10885000
 Ni     -3.36630000      0.59668700      0.75721400
 Ni     -0.91661400     -0.89078700      1.33646000
 Ni     -0.22514200      3.51928000      2.28393000
 Ni      0.38538400     -1.07384000     -3.20291000
 Ni      3.24605000     -0.55495800     -0.69822500
 Ni      0.80605300     -1.67203000     -0.56710700
 Ni      2.62204000     -2.68356000     -2.52855000
 Ni      3.55627000      1.82734000     -1.46160000
 Ni      1.78504000     -0.36244400      3.84800000
 Ni      1.41570000      0.24816000      1.19380000
 Ni      2.73662000      0.15625200     -3.18774000
 Ni      1.02108000      3.54631000     -2.19207000
 Ni     -2.04827000     -2.10682000     -3.12625000
 Ni      3.56832000     -1.14273000      1.85532000
 Ni     -1.56791000     -2.75620000     -0.44427500
 Ni      3.82214000      1.46980000      1.01312000
 Ni      0.96998400      0.91434500     -1.33294000
 Ni     -2.03653000      0.16410900     -3.94041000
 Ni     -3.91893000     -1.45804000     -1.50351000
 Ni      2.00327000      2.18389000      2.93523000
 Ni     -0.34183500      0.99512700      3.09550000
 Ni      3.11897000     -3.11438000      0.11203400
 Ni     -1.12745000     -3.56423000      2.24145000
 Ni     -2.95802000      2.97467000     -0.06783640
 Ni      1.85955000      2.93525000      0.42022500
 Ni     -2.64132000      2.63467000      2.35105000
 Ni     -2.60929000     -0.12791600      3.14790000
 Ni      0.41538200      1.60678000     -3.92366000
 Ni     -0.73242000      1.66720000      0.54105600
 Ni     -3.27948000     -2.05471000      1.32783000
 Ni     -0.48128500     -1.46073000      4.14081000
 Ni     -3.63445000      1.38571000     -1.98997000
 Ni      1.25180000     -2.40054000      2.12302000
  C      2.16494000     -3.84252000      3.34041000
  O      2.99322000     -4.36574000      4.15926000
  C     -2.65158000     -5.08117000      1.13418000
  O     -3.16088000     -6.25000000      1.30625000
  C     -2.01298000      5.33120000      2.25940000
  O     -1.99976000      6.67095000      2.23230000
  C     -4.80728000     -1.36781000     -3.31597000
  O     -6.02298000     -1.78519000     -3.62368000
  C     -5.86774000      1.17520000     -1.18181000
  O     -7.00278000      1.78055000     -1.11765000
  C     -5.21032000      1.00339000      1.63357000
  O     -6.34548000      0.50355000      1.97689000
  C      0.19295900      1.37765000      5.73478000
  O      0.46621000      1.81476000      6.91174000
  C      2.72720000     -4.67030000     -2.95717000
  O      3.76427000     -5.38251000     -3.26012000
  C      0.63485100      2.93108000      4.78560000
  O      0.71263700      3.83978000      5.74421000
  C     -0.06822650     -3.75881000      4.56118000
  O      0.44049400     -4.50201000      5.44132000
  C     -0.35306500      3.01403000     -5.36955000
  O     -0.61469800      3.31421000     -6.59949000
  C      3.59209000      1.54406000     -4.94717000
  O      4.58152000      1.86577000     -5.70532000
  C     -1.28405000     -2.44280000     -5.28341000
  O     -1.43719000     -3.54082000     -5.97599000
  C      5.59863000      0.57732300     -0.57274000
  O      6.80046000      0.24057500     -0.24272800
  C      1.41934000     -5.31165000     -2.94220000
  O      1.23063000     -6.55115000     -3.23563000
  C     -0.59224700      0.06677600      5.52922000
  O     -1.15017000     -0.20038500      6.67240000
  C     -4.73769000     -3.53884000     -0.70691100
  O     -5.49363000     -4.44535000     -1.21811000
  C      3.94267000     -4.49062000      1.44438000
  O      4.95117000     -4.92915000      2.11099000
  C      5.08834000     -0.63771800      3.62348000
  O      6.27430000     -0.69886700      4.11976000
  C      1.53071000     -5.06022000      2.57560000
  O      0.87793000     -6.03124000      3.17048000
  C      1.20147000     -2.67222000     -4.68168000
  O      1.66160000     -3.31342000     -5.69376000
  C     -4.06971000     -0.69166500     -4.41480000
  O     -4.61782000     -0.52302600     -5.57595000
  C      2.74896000     -5.45626000      1.64975000
  O      2.86741000     -6.74255000      1.86401000
  C      3.33826000      4.43834000      0.54967700
  O      3.69103000      5.59049000      0.11240800
  C      3.98301000      3.81199000      1.70875000
  O      4.79165000      4.50915000      2.42494000
  C     -0.87496700      5.47334000     -2.05709000
  O     -1.57950000      6.50022000     -2.37722000
  C      0.22533000     -1.83326000     -5.56493000
  O      0.63841100     -1.24359000     -6.66215000
  C      5.42816000      0.95160600     -2.01143000
  O      6.38255000      0.88399600     -2.86738000
  C     -1.62491000     -0.96036100     -5.68647000
  O     -2.00513000     -0.66646700     -6.87300000
  C     -4.90958000      2.45093000      1.56873000
  O     -5.94259000      3.25220000      1.74642000
  C     -0.91121700      3.95342000     -4.38103000
  O     -1.92432000      4.68137000     -4.66281000
  C     -3.07744000      4.56479000      2.79497000
  O     -4.04777000      5.27599000      3.35697000
  C     -0.14789400      5.07391000     -3.35961000
  O      0.34951400      5.90933000     -4.20444000
  C      1.74769000     -0.96434600      6.27143000
  O      1.62700000     -0.45696700      7.44543000
  C     -3.34960000      3.23900000     -2.88819000
  O     -4.04156000      4.08288000     -3.80994000
  C      4.70907000     -2.63595000     -1.58395000
  O      5.96790000     -2.95846000     -1.96402000

