#B3LYP/6-31+G(d) OPT FREQ

110, Energy = -12399.56667884 au

0 1
 Ni     -0.08773400     -3.88265000     -2.48971000
 Ni     -1.48404000     -0.25585300     -1.23503000
 Ni      0.42556100     -4.32374000      0.10722100
 Ni     -0.35627700      4.26647000     -0.16942500
 Ni     -1.37223000      2.38131000     -2.04003000
 Ni     -3.56187000      0.54978000      0.80786400
 Ni     -1.10560000     -0.95195600      1.40478000
 Ni     -0.00123304      3.44971000      2.31577000
 Ni      0.16486600     -1.08706000     -3.46115000
 Ni      3.59266000     -0.48730000     -0.86237600
 Ni      0.60191400     -1.67445000     -0.58939400
 Ni      2.32664000     -2.29328000     -2.49063000
 Ni      3.37890000      2.12321000     -1.82280000
 Ni      1.70293000     -0.27598900      3.88677000
 Ni      1.36709000      0.21074300      1.25863000
 Ni      2.67763000      0.16879900     -3.64240000
 Ni      1.17435000      3.48920000     -1.96699000
 Ni     -2.23003000     -2.24085000     -2.87996000
 Ni      3.75612000     -1.16394000      1.67516000
 Ni     -1.99227000     -3.16099000     -0.35114300
 Ni      3.81521000      1.21604000      0.94180800
 Ni      1.01252000      0.83676600     -1.39444000
 Ni     -2.24741000      0.53299100     -3.69488000
 Ni     -3.79697000     -1.40346000     -1.02546000
 Ni      2.06681000      2.43309000      3.23069000
 Ni     -0.51013900      1.02150000      3.33318000
 Ni      2.76869000     -2.94222000      0.08437370
 Ni     -1.34724000     -3.53065000      2.28851000
 Ni     -3.24491000      3.14341000     -0.09367630
 Ni      1.69978000      2.80566000      0.47607000
 Ni     -2.54041000      2.57562000      2.40486000
 Ni     -3.14086000     -0.24971900      3.28254000
 Ni      0.50968500      1.72556000     -4.02315000
 Ni     -0.81215600      1.61328000      0.54772100
 Ni     -3.72245000     -1.99157000      1.64025000
 Ni     -0.59167100     -1.54994000      4.15887000
 Ni     -3.90174000      1.19598000     -1.83564000
 Ni      1.13793000     -2.39758000      2.21193000
  C     -4.29143000     -0.49345400     -3.84219000
  O     -5.02827000      0.10672000     -4.71398000
  C      2.19115000      2.13209000     -5.39531000
  O      2.25725000      2.68465000     -6.56271000
  C     -3.21096000      4.48349000      2.14853000
  O     -3.77065000      5.35709000      2.93795000
  C     -3.51899000     -4.27221000      0.21379600
  O     -3.86326000     -5.26701000     -0.53384700
  C     -4.73997000     -1.98251000     -3.84733000
  O     -5.31291000     -2.60329000     -4.83790000
  C      0.80694400     -3.71930000     -4.29727000
  O      0.60534200     -4.37324000     -5.40317000
  C      4.53396000      0.60837600     -4.49168000
  O      4.82566000      1.07568000     -5.64262000
  C     -4.93414000     -2.93410000     -2.49564000
  O     -5.56301000     -4.10305000     -2.16043000
  C     -4.14554000     -3.58671000      2.50480000
  O     -4.97930000     -4.08544000      3.35593000
  C     -1.81687000      2.45598000     -4.39879000
  O     -2.52898000      3.21576000     -5.26286000
  C     -5.03933000      2.20681000      0.45778200
  O     -5.94368000      2.56571000      1.32288000
  C      3.94756000      3.10849000     -3.68668000
  O      3.83006000      3.22268000     -4.98584000
  C     -0.48090500      0.36374900      5.30198000
  O     -1.18140000      0.89511700      6.24444000
  C     -2.35505000     -4.40945000     -2.48529000
  O     -3.41146000     -5.05563000     -2.87564000
  C     -4.17724000     -1.70911000      4.65141000
  O     -4.81516000     -2.73172000      5.10867000
  C     -1.21466000     -5.30896000     -1.79784000
  O     -1.19781000     -6.59671000     -1.76245000
  C     -1.90532000     -4.75137000      3.60822000
  O     -2.45544000     -5.90474000      3.66574000
  C      1.79963000     -0.50659900     -5.36366000
  O      2.41111000     -0.43010900     -6.50180000
  C      1.20119000      2.26117000      4.94403000
  O      0.97556500      3.19131000      5.80012000
  C     -3.40089000      3.89332000     -2.05881000
  O     -3.97209000      4.99016000     -2.48195000
  C     -4.25021000     -0.43098400      5.17812000
  O     -4.80796000     -0.02457570      6.26681000
  C     -2.33258000     -4.09571000      4.90955000
  O     -3.28826000     -4.55252000      5.66063000
  C      1.11672000     -3.59768000      3.81877000
  O      1.92782000     -4.47926000      4.30422000
  C     -1.49248000     -2.91944000      5.22646000
  O     -1.67064000     -2.68916000      6.48228000
  C      2.48662000      4.29886000      2.74163000
  O      3.37717000      5.11621000      3.25629000
  C     -5.51642000      1.73291000     -0.94335600
  O     -6.69642000      1.72389000     -1.45171000
  C      1.47585000     -5.95556000     -1.08751000
  O      1.85341000     -7.14885000     -0.83065300
  C     -4.58025000     -4.42493000      1.31409000
  O     -5.62117000     -5.18211000      1.32676000
  C      5.41797000      0.22251100     -3.33528000
  O      6.64812000      0.65751800     -3.39640000
  C     -4.70727000     -0.42802000      1.98809000
  O     -5.95167000     -0.32268200      2.24207000
  C      1.48738000      5.24096000     -0.46232100
  O      1.94188000      6.48562000     -0.31246400
  C      4.63040000      3.80105000     -2.71130000
  O      5.44645000      4.79803000     -2.74503000
  C      4.95800000     -0.73859000     -2.22417000
  O      5.86241000     -1.58704000     -1.86753000
  C      0.46082700     -1.16603000     -5.32528000
  O     -0.24046900     -1.71794000     -6.25387000
  C      1.05467000      0.85471000      5.68771000
  O      1.61117000      0.55210700      6.80288000
  C      5.20984000     -0.71170400      0.58218800
  O      6.39893000     -1.07010000      0.61032500

