110
Energy = -12351.57309119 au
 Ni     -0.08711510     -3.63565000     -2.19298000
 Ni     -1.38248000     -0.20278000     -1.19888000
 Ni      0.38450100     -4.51173000      0.37869600
 Ni     -0.69995600      4.26912000     -0.00840811
 Ni     -1.29229000      2.39337000     -2.05076000
 Ni     -3.02007000      0.58740600      0.65744600
 Ni     -0.91008900     -0.91437200      1.29712000
 Ni     -0.13603500      3.76390000      2.64347000
 Ni      0.34056200     -1.01331000     -3.17166000
 Ni      3.23431000     -0.59501800     -0.65028700
 Ni      0.74476800     -1.70054000     -0.52154500
 Ni      2.33470000     -2.34311000     -2.56551000
 Ni      3.42949000      2.02691000     -1.55953000
 Ni      1.78474000     -0.35552400      3.79383000
 Ni      1.41748000      0.18522400      1.19832000
 Ni      2.68508000      0.39009500     -3.28383000
 Ni      1.04050000      3.50229000     -2.21769000
 Ni     -2.06176000     -2.03789000     -2.87682000
 Ni      3.52974000     -1.34783000      1.98838000
 Ni     -1.72108000     -2.89568000     -0.37520400
 Ni      3.78164000      1.23074000      1.29193000
 Ni      0.97728800      0.89502000     -1.34744000
 Ni     -2.00713000      0.46000200     -3.69509000
 Ni     -3.80352000     -1.18183000     -1.12157000
 Ni      2.41320000      2.33185000      3.01186000
 Ni     -0.30065800      1.08138000      3.06451000
 Ni      2.93073000     -3.16161000      0.32387900
 Ni     -1.35068000     -3.42806000      2.38262000
 Ni     -3.03774000      3.16743000      0.06036380
 Ni      1.59990000      2.75640000      0.47910100
 Ni     -2.40742000      2.61818000      2.71621000
 Ni     -2.61758000     -0.14773600      3.15872000
 Ni      0.44339900      1.53861000     -4.05081000
 Ni     -0.75219800      1.69848000      0.55728400
 Ni     -3.26941000     -1.96617000      1.42036000
 Ni     -0.62505300     -1.53924000      3.84149000
 Ni     -3.75855000      1.44979000     -1.94358000
 Ni      1.18385000     -2.45697000      2.12637000
  C      3.75965000     -3.32529000      3.24518000
  O      4.66933000     -3.35097000      4.18032000
  C     -5.50186000      2.22788000     -0.92500900
  O     -6.52297000      2.96010000     -0.67977200
  C      5.58191000     -0.17239600     -1.67445000
  O      6.73654000     -0.24469700     -2.24920000
  C     -1.39347000     -5.81629000     -0.29758700
  O     -1.42034000     -7.01818000      0.14893000
  C     -2.44573000     -3.83818000      4.07437000
  O     -2.88763000     -4.95629000      4.55498000
  C     -1.98653000      3.70180000     -3.86770000
  O     -2.44142000      4.84565000     -4.25122000
  C     -2.11292000      5.69239000      1.07508000
  O     -2.11539000      6.92578000      0.68178200
  C      4.26111000      2.11608000      3.88703000
  O      4.78439000      2.80406000      4.85095000
  C     -0.61698600      3.76668000      4.56490000
  O     -0.23966800      4.56446000      5.50246000
  C      5.30719000     -1.27263000     -0.80779100
  O      6.21116000     -2.14802000     -0.52988600
  C     -5.91159000      0.85429800     -1.43259000
  O     -6.88183000      0.34982000     -0.75878100
  C      4.72950000      2.85691000     -3.38624000
  O      5.30631000      3.98418000     -3.49615000
  C     -4.33980000     -0.15710300     -4.06021000
  O     -4.86386000     -0.41667100     -5.26436000
  C      5.41177000      1.67202000     -2.63502000
  O      6.63117000      1.88428000     -2.88226000
  C      1.42992000     -2.41451000     -4.70769000
  O      1.56214000     -2.74956000     -5.92689000
  C     -3.39972000      2.82662000     -3.56923000
  O     -4.36363000      3.47504000     -4.14774000
  C      0.29538400      5.00757000     -3.43054000
  O      0.07269380      6.23826000     -3.69891000
  C      5.01500000      1.01675000      3.31898000
  O      6.08104000      0.55032000      3.85413000
  C     -1.72766000      5.43915000      2.65377000
  O     -1.52775000      6.47683000      3.38907000
  C     -2.73374000     -4.93681000     -0.64321400
  O     -3.96488000     -5.27653000     -0.49450800
  C      2.22933000     -3.67954000      3.61173000
  O      2.20610000     -3.86883000      4.88327000
  C     -1.70632000      2.76122000      4.75076000
  O     -2.19557000      2.58807000      5.93048000
  C     -2.83179000     -2.63271000      4.75989000
  O     -3.65063000     -2.53781000      5.73406000
  C     -5.52179000      0.14180400     -2.99957000
  O     -6.67915000      0.32202200     -3.53216000
  C     -3.57139000      4.95308000      1.29886000
  O     -4.65713000      5.65337000      1.25464000
  C      1.43263000     -5.05778000      2.84286000
  O      1.34519000     -5.80866000      3.89166000
  C     -1.70675000     -5.34430000     -1.84429000
  O     -2.03442000     -6.11179000     -2.81954000
  C     -0.02600470      0.13358400     -5.92467000
  O     -0.64668400     -0.35509700     -6.93150000
  C      0.73296700      0.08390860      5.79219000
  O      0.97218900      0.49467700      6.96115000
  C      2.39461000      4.45931000      2.59798000
  O      3.19949000      5.44002000      2.92217000
  C     -3.15041000      4.62419000      2.86189000
  O     -3.94853000      4.92383000      3.83529000
  C      1.43598000     -5.81934000      1.53890000
  O      1.81450000     -7.04453000      1.56346000
  C      1.39842000      0.28103500     -5.84921000
  O      2.23041000     -0.03908930     -6.76645000
  C      3.84713000     -4.06184000      1.88153000
  O      4.24055000     -5.23279000      2.19938000
  C      3.61274000      2.30991000     -4.25317000
  O      3.85867000      2.80026000     -5.38683000
  C     -0.35035100      4.00078000     -4.36194000
  O     -0.23750500      4.25669000     -5.61542000
