110
Energy = -12332.16622238 au
 Ni     -0.02847960     -3.72025000     -2.29006000
 Ni     -1.34724000     -0.27034400     -1.17915000
 Ni      0.31294700     -4.39719000      0.15971300
 Ni     -0.49980500      4.40986000     -0.12146100
 Ni     -1.10573000      2.28231000     -1.83858000
 Ni     -3.25981000      0.53554800      0.75794000
 Ni     -0.96989800     -0.85570000      1.27387000
 Ni     -0.20171200      3.78346000      2.33087000
 Ni      0.45358000     -1.15526000     -3.27928000
 Ni      3.38624000     -0.50107500     -0.71886100
 Ni      0.78623100     -1.69378000     -0.56665200
 Ni      2.69353000     -2.26149000     -2.63470000
 Ni      3.72626000      2.11040000     -1.70103000
 Ni      1.81281000     -0.13352200      3.86925000
 Ni      1.38465000      0.29946000      1.21731000
 Ni      3.31470000      0.01449750     -3.45134000
 Ni      1.37042000      3.31910000     -2.16636000
 Ni     -1.92811000     -2.11460000     -3.23388000
 Ni      3.49090000     -1.07989000      1.78322000
 Ni     -1.74960000     -3.01260000     -0.54401700
 Ni      3.72561000      1.57277000      1.04397000
 Ni      1.11773000      0.85936900     -1.34374000
 Ni     -1.74963000      0.42318600     -3.61910000
 Ni     -3.66212000     -1.37931000     -1.05661000
 Ni      2.05646000      2.41562000      3.08290000
 Ni     -0.35207000      1.20031000      3.32217000
 Ni      2.83615000     -3.20260000      0.27738800
 Ni     -1.14012000     -3.39422000      2.00121000
 Ni     -3.20197000      3.26802000      0.12380300
 Ni      1.91176000      3.22587000      0.42282500
 Ni     -2.50152000      2.47463000      2.41987000
 Ni     -2.77062000     -0.03630930      3.06039000
 Ni      0.61621800      1.45296000     -3.86544000
 Ni     -0.73199400      1.71429000      0.61872600
 Ni     -3.36507000     -2.16005000      1.41058000
 Ni     -0.53779600     -1.45307000      3.72022000
 Ni     -3.65695000      1.23858000     -1.59710000
 Ni      1.32055000     -2.44543000      2.13123000
  C     -1.64568000     -2.38182000     -5.21255000
  O     -2.30449000     -2.53354000     -6.30152000
  C      4.00600000      4.49113000     -1.85102000
  O      4.85001000      5.40880000     -2.16391000
  C     -0.76850100     -6.24321000      0.99503900
  O     -1.37878000     -7.22442000      0.43481700
  C     -4.50756000     -3.85519000      0.50764000
  O     -5.13418000     -4.88235000      0.89542300
  C     -3.49650000      5.12748000      0.47425000
  O     -4.35504000      5.92084000     -0.06086270
  C     -0.95678600     -5.60373000     -1.85205000
  O     -0.87884500     -6.82237000     -2.25198000
  C      2.09220000      3.33445000     -4.49097000
  O      2.23557000      4.48466000     -5.15043000
  C     -2.66669000      5.67442000      1.62296000
  O     -2.65678000      6.96818000      1.73279000
  C      1.93847000      0.89097500     -6.23918000
  O      2.63540000      0.70581200     -7.30289000
  C     -5.23828000      2.44657000      1.14988000
  O     -5.88517000      3.50676000      1.46674000
  C      0.66497500      0.37545300     -5.80193000
  O      0.03863980     -0.36216600     -6.64628000
  C     -0.19477300     -2.56679000     -4.96793000
  O      0.48983300     -3.19615000     -5.86360000
  C      2.30957000     -1.55447000     -4.78495000
  O      2.53126000     -1.92258000     -6.09479000
  C     -2.12215000     -4.98891000     -1.11607000
  O     -3.20833000     -5.65507000     -0.93106600
  C      3.99590000      3.59963000      1.52259000
  O      4.85817000      4.57066000      1.72320000
  C      5.50386000      1.51910000     -2.04449000
  O      6.65820000      1.99102000     -1.70928000
  C     -4.79096000      1.31384000      2.17253000
  O     -5.94116000      0.96527100      2.63078000
  C      5.27282000      0.41453600     -2.97804000
  O      6.27373000     -0.16249000     -3.50855000
  C     -0.70732600      1.48072000      5.35608000
  O     -0.58307900      0.99564100      6.54121000
  C      2.95194000      4.63201000     -0.71076800
  O      3.20949000      5.85541000     -0.30841500
  C      4.02385000      1.01020000     -4.89325000
  O      5.13949000      0.87168000     -5.51544000
  C      5.32401000     -2.12882000     -2.00767000
  O      6.13592000     -3.12898000     -1.88454000
  C      4.60929000     -1.94503000     -3.40381000
  O      5.32838000     -2.29522000     -4.41256000
  C      2.22142000      4.47222000      3.19866000
  O      2.90071000      5.14305000      4.06516000
  C     -1.48681000      5.58140000     -1.91190000
  O     -1.75659000      6.77325000     -2.31421000
  C      5.22567000     -1.01129000     -0.94261800
  O      6.40406000     -0.66361000     -0.56870500
  C      1.92302000      1.31269000      5.25261000
  O      1.88423000      1.52321000      6.55872000
  C     -1.13693000      2.77595000      4.95583000
  O     -1.46919000      3.81042000      5.63096000
  C      4.09650000      3.48240000     -2.97793000
  O      4.84677000      3.58548000     -4.01930000
  C     -5.30737000      1.66796000     -0.23660900
  O     -6.55486000      1.37446000     -0.29539700
  C      2.02315000      5.53045000      2.12229000
  O      2.91892000      6.39067000      1.86648000
  C     -1.96484000      4.98285000      2.88605000
  O     -2.06467000      5.73330000      3.92219000
  C      3.16155000     -4.39552000      2.00278000
  O      3.78783000     -5.51924000      2.10337000
  C      3.00988000      1.97416000     -5.49056000
  O      3.55797000      2.78883000     -6.35264000
  C      2.53882000     -3.76867000      3.16332000
  O      2.70675000     -4.11109000      4.39280000
  C      0.58602800      5.71318000      1.62678000
  O      0.46449900      6.97419000      1.86640000
