110
Energy = -11771.33131937 au
 Ni      0.03242670     -3.77770000     -2.34390000
 Ni     -1.38355000     -0.23564100     -1.19888000
 Ni      0.67431000     -4.28879000      0.10464900
 Ni     -0.47932000      4.46704000     -0.36476200
 Ni     -1.17287000      2.42473000     -1.98732000
 Ni     -3.15104000      0.45306600      0.70978400
 Ni     -1.00500000     -0.89336800      1.30532000
 Ni     -0.19686800      3.75603000      2.18774000
 Ni      0.33848600     -0.98665500     -3.08976000
 Ni      3.13694000     -0.46808400     -0.68918200
 Ni      0.72071300     -1.65611000     -0.59195100
 Ni      2.64036000     -2.47128000     -2.54807000
 Ni      3.45659000      2.19311000     -1.45523000
 Ni      1.76784000     -0.38983700      3.64508000
 Ni      1.38405000      0.24585200      1.15091000
 Ni      2.74575000      0.19374200     -3.22881000
 Ni      1.26887000      3.64003000     -2.14852000
 Ni     -2.21898000     -2.12190000     -2.96649000
 Ni      3.69692000     -1.14234000      1.86444000
 Ni     -1.70158000     -2.93562000     -0.50605400
 Ni      3.84571000      1.29716000      1.00549000
 Ni      0.97804300      0.92873400     -1.32762000
 Ni     -1.70603000      0.28827700     -3.87759000
 Ni     -3.80352000     -1.33862000     -0.98849200
 Ni      1.95909000      2.08731000      2.93086000
 Ni     -0.36479900      1.01027000      3.12033000
 Ni      2.89110000     -3.06647000     -0.02030760
 Ni     -1.24175000     -3.45331000      2.27886000
 Ni     -2.75433000      3.04297000     -0.13517300
 Ni      1.71196000      2.92144000      0.38805500
 Ni     -2.42467000      2.39235000      2.44052000
 Ni     -2.75203000     -0.32629200      3.29846000
 Ni      0.59692800      1.48234000     -3.92944000
 Ni     -0.69899000      1.66246000      0.54121400
 Ni     -3.54308000     -2.07660000      1.56983000
 Ni     -0.63822700     -1.67598000      3.83508000
 Ni     -3.53120000      1.11700000     -1.83983000
 Ni      1.12844000     -2.25779000      1.90176000
  C     -2.31025000      2.66768000      4.82898000
  O     -2.62291000      3.29327000      5.90968000
  C     -0.93552500     -0.30576200     -5.83305000
  O     -1.41366000     -0.72215300     -6.95191000
  C      5.35180000      0.00482726      3.11342000
  O      6.29395000     -0.12445300      3.97364000
  C      3.83862000      4.38406000     -1.22832000
  O      4.48644000      5.41046000     -1.64885000
  C      2.16910000     -5.76087000     -0.63716700
  O      2.52608000     -6.97654000     -0.52386300
  C      0.47000500      1.86314000      5.23972000
  O      0.15229800      2.21332000      6.41763000
  C      1.82046000      5.79519000     -2.14272000
  O      2.53183000      6.72760000     -2.78230000
  C     -2.31218000      5.32194000      2.27509000
  O     -3.34919000      6.07059000      2.30317000
  C     -3.76038000     -1.62779000     -4.80889000
  O     -4.23122000     -1.41599000     -5.98356000
  C      5.60929000     -1.95936000      0.73511800
  O      6.89644000     -1.97987000      0.75887500
  C     -1.05581000      5.67569000      2.79069000
  O     -0.87461300      6.83016000      3.33908000
  C      1.01952000     -5.57114000     -2.84303000
  O      0.94834800     -6.72152000     -3.34916000
  C     -4.70552000     -3.68272000      2.67069000
  O     -5.35964000     -4.16952000      3.66419000
  C     -2.05373000     -4.94339000     -2.55874000
  O     -2.42323000     -5.92521000     -3.30064000
  C     -2.69274000     -4.75839000     -1.27066000
  O     -3.54462000     -5.65826000     -0.92763500
  C     -4.42806000     -4.12411000      1.37577000
  O     -4.95493000     -5.19522000      0.89569800
  C      3.17981000      2.38898000     -4.47178000
  O      3.87596000      2.92129000     -5.41652000
  C     -5.53200000     -0.65269700      0.91148900
  O     -6.69622000     -0.49135900      1.19242000
  C      5.54876000      0.89027800     -0.90281200
  O      6.77487000      0.77972400     -1.19909000
  C      2.04892000     -2.83856000     -4.77638000
  O      2.48046000     -3.32229000     -5.88483000
  C     -1.64135000      5.49958000     -1.84066000
  O     -1.75989000      6.72321000     -2.23338000
  C     -3.19562000     -1.48883000      5.26448000
  O     -3.27497000     -1.84507000      6.49191000
  C     -5.77330000      1.69210000     -1.02854000
  O     -7.05879000      1.75670000     -1.06496000
  C     -4.27858000     -1.75871000      4.33894000
  O     -5.43090000     -2.14831000      4.74496000
  C     -2.64639000     -3.51013000      4.13957000
  O     -3.27547000     -4.15040000      5.08010000
  C     -4.48413000     -2.31829000     -3.82017000
  O     -5.66594000     -2.77298000     -4.02745000
  C      0.50480800     -0.12093900     -5.74267000
  O      1.22561000     -0.44331300     -6.75707000
  C      2.33848000     -5.46107000     -2.11983000
  O      3.38276000     -5.82620000     -2.72037000
  C     -2.38632000      4.50273000     -2.56604000
  O     -3.16019000      4.85138000     -3.52971000
  C      0.02213450     -4.23039000      4.13800000
  O      0.35400500     -5.21925000      4.83838000
  C      1.95177000      5.86012000     -0.31873400
  O      2.45380000      7.07801000     -0.43619700
  C      3.15997000      4.74520000      0.08828430
  O      3.80407000      5.33666000      1.03750000
  C      0.92518400      5.83727000      0.85984400
  O      1.23909000      6.85940000      1.56301000
  C      4.80949000     -1.97886000     -3.19705000
  O      5.87157000     -1.77809000     -3.89019000
  C      4.85043000     -3.01227000     -2.21568000
  O      5.94493000     -3.67370000     -2.09472000
  C      0.03589940      4.24906000     -4.15132000
  O     -0.32135500      5.28026000     -4.82470000
