110
Energy = -12634.91371430 au
 Ni      0.16761600     -3.57762000     -2.47610000
 Ni     -1.45010000     -0.23736900     -1.25554000
 Ni      0.35080200     -4.67443000     -0.25128700
 Ni     -0.58575700      4.31339000      0.12286300
 Ni     -1.40920000      2.48295000     -2.01997000
 Ni     -3.79980000      0.66188700      0.94619900
 Ni     -1.10860000     -0.90160400      1.28632000
 Ni     -0.11139800      3.74542000      2.77192000
 Ni      0.31706100     -0.94886900     -3.22576000
 Ni      3.11501000     -0.55964500     -0.89499400
 Ni      0.68873100     -1.72434000     -0.59883000
 Ni      2.58364000     -2.25706000     -2.97296000
 Ni      3.16626000      2.10600000     -1.82924000
 Ni      1.82157000     -0.24304500      4.01406000
 Ni      1.33089000      0.14897800      1.27434000
 Ni      2.65355000      0.36748400     -3.76512000
 Ni      0.91024000      3.60282000     -2.14533000
 Ni     -2.05484000     -2.42494000     -3.10589000
 Ni      3.70215000     -1.00496000      2.03050000
 Ni     -1.75414000     -2.98519000     -0.60558100
 Ni      3.61597000      1.34231000      1.02945000
 Ni      0.90820900      0.91642900     -1.40894000
 Ni     -2.10541000      0.32862600     -3.76225000
 Ni     -3.81170000     -1.27505000     -0.87962700
 Ni      1.99270000      2.16683000      3.12757000
 Ni     -0.39908000      1.18366000      3.31720000
 Ni      2.81474000     -2.99334000      0.26767200
 Ni     -1.34653000     -3.47249000      1.91202000
 Ni     -3.23824000      3.26556000     -0.24699600
 Ni      1.50569000      2.80779000      0.48232700
 Ni     -2.66235000      2.47800000      2.57155000
 Ni     -2.97426000     -0.29998900      3.21451000
 Ni      0.54844400      1.78434000     -3.96769000
 Ni     -0.89792800      1.68848000      0.63605900
 Ni     -3.80880000     -2.23859000      1.68621000
 Ni     -0.50774900     -1.29161000      3.84197000
 Ni     -3.81329000      1.42913000     -1.96693000
 Ni      1.29558000     -2.45350000      2.18855000
  C      4.07558000     -0.12833200      4.53453000
  O      4.37922000     -0.73466400      5.64034000
  C     -2.63442000      3.07987000      4.38722000
  O     -3.59736000      3.20386000      5.22999000
  C      2.06723000     -3.74489000      3.51941000
  O      1.79355000     -4.16715000      4.70760000
  C     -1.25828000      5.44442000      1.81287000
  O     -1.64090000      6.67642000      2.08947000
  C     -1.80228000     -5.29290000      0.49460500
  O     -2.53761000     -6.23865000      0.96677200
  C      3.05733000      2.10270000     -4.64623000
  O      3.15924000      2.35306000     -5.90998000
  C      1.25829000      5.11010000      1.58330000
  O      1.80184000      6.27401000      1.87686000
  C     -0.17460500      3.47604000     -4.73256000
  O     -0.70640200      3.66759000     -5.89126000
  C      1.47465000     -6.06457000     -0.80888000
  O      1.52796000     -7.27339000     -0.34155300
  C      1.41052000      3.39025000      4.60198000
  O      1.27442000      4.51030000      5.21621000
  C      2.40307000      2.47909000      5.39282000
  O      2.27710000      2.48604000      6.66647000
  C     -2.93498000     -4.09800000     -2.87905000
  O     -3.75348000     -4.90428000     -3.46903000
  C     -3.91649000      0.34705300     -4.47019000
  O     -4.50409000      0.04511020     -5.58812000
  C      0.31628400      0.55238300      4.96902000
  O      0.09288510      1.04714000      6.13900000
  C     -1.36480000     -5.34077000     -1.09363000
  O     -1.72058000     -6.24303000     -1.95321000
  C      2.67877000     -0.33996000     -5.51805000
  O      2.61031000      0.23609900     -6.66736000
  C      4.46635000     -1.61389000     -2.53716000
  O      5.70475000     -2.00372000     -2.76629000
  C     -2.99563000      3.50979000     -2.09298000
  O     -3.29888000      4.51932000     -2.84287000
  C      3.84875000      2.74321000     -3.59564000
  O      4.75392000      3.62779000     -3.81720000
  C      0.39506200     -2.47415000     -5.16825000
  O      0.80347300     -2.13884000     -6.34360000
  C     -1.19635000      3.38966000      4.62531000
  O     -0.88072700      3.65715000      5.85075000
  C     -4.62518000     -0.56229800      2.24646000
  O     -5.81961000     -0.44053400      2.73838000
  C     -3.23459000     -2.66564000      3.69377000
  O     -4.05314000     -3.25642000      4.57849000
  C      1.25952000     -3.47288000     -4.23910000
  O      1.72496000     -4.41802000     -4.98802000
  C     -4.69975000      2.43552000      1.50726000
  O     -5.76353000      2.46998000      2.24197000
  C      3.08699000     -4.05454000      2.58361000
  O      4.11733000     -4.81903000      2.58076000
  C      2.12873000     -5.44063000     -1.92144000
  O      2.98534000     -5.89477000     -2.75075000
  C      4.97232000     -0.39576100      3.29917000
  O      6.25111000     -0.31352400      3.27025000
  C     -5.67323000      1.85089000     -0.98559300
  O     -6.68448000      2.08062000     -1.76467000
  C      3.63036000      1.56469000      4.73835000
  O      4.73247000      2.01235000      5.23039000
  C      0.05227980      4.54216000     -3.68350000
  O     -0.27143100      5.79096000     -3.75019000
  C     -1.15041000     -2.47122000     -4.88473000
  O     -1.73163000     -2.57282000     -6.02595000
  C     -4.33583000     -3.73170000      0.62356500
  O     -5.07662000     -4.76238000      0.90414400
  C     -5.27167000      3.07424000      0.04218570
  O     -6.02980000      4.11702000     -0.13073700
  C     -5.38801000      0.42364000     -0.21728100
  O     -6.53624000      0.12857600      0.29865900
  C      2.96651000     -1.67489000     -5.04148000
  O      3.47536000     -2.57959000     -5.81635000
