#B3LYP/6-31+G(d) OPT FREQ

110, Energy = -12406.53506552 au

0 1
 Ni     -0.09737640     -3.72082000     -2.20115000
 Ni     -1.49103000     -0.23203200     -1.18666000
 Ni      0.61488800     -4.33660000      0.51246400
 Ni     -0.31244100      4.51615000     -0.17968000
 Ni     -1.25669000      2.52606000     -1.96281000
 Ni     -3.29877000      0.59267000      0.79614800
 Ni     -1.00997000     -0.95516400      1.35898000
 Ni     -0.10352400      3.54160000      2.44469000
 Ni      0.26664700     -1.02264000     -3.14192000
 Ni      3.01697000     -0.39959400     -0.63122900
 Ni      0.66945700     -1.69869000     -0.51708300
 Ni      2.79266000     -2.27686000     -2.37350000
 Ni      3.36273000      2.14149000     -1.60756000
 Ni      1.97618000     -0.34400200      4.24824000
 Ni      1.37919000      0.31959600      1.27008000
 Ni      2.69565000      0.09173950     -3.39681000
 Ni      1.27285000      3.79419000     -2.04283000
 Ni     -2.20038000     -2.22499000     -3.15903000
 Ni      3.43750000     -1.07245000      2.00567000
 Ni     -1.75647000     -3.09724000     -0.35577100
 Ni      3.92019000      1.38306000      1.29542000
 Ni      0.91876100      0.98452300     -1.35694000
 Ni     -1.75321000      0.22082500     -3.88538000
 Ni     -3.92536000     -1.37172000     -1.20459000
 Ni      2.24417000      2.24317000      3.21608000
 Ni     -0.23584200      1.12026000      3.21924000
 Ni      2.80284000     -2.97854000      0.11770500
 Ni     -1.19280000     -3.65046000      2.26161000
 Ni     -3.16704000      3.11710000     -0.09626140
 Ni      1.75043000      3.02561000      0.44235900
 Ni     -2.33494000      2.41138000      2.65012000
 Ni     -2.69433000     -0.53953400      3.32881000
 Ni      0.33301900      1.92153000     -3.99997000
 Ni     -0.77311400      1.73264000      0.55217600
 Ni     -3.37726000     -2.55500000      1.72589000
 Ni     -0.46787900     -1.71590000      3.94953000
 Ni     -3.85911000      1.18233000     -1.75862000
 Ni      1.24390000     -2.42237000      2.21129000
  C     -2.75396000     -4.74165000      0.17682500
  O     -2.64330000     -5.98734000     -0.14388800
  C     -5.97467000      0.88485200     -0.03196010
  O     -6.98211000      0.08625820      0.10811000
  C     -2.43038000      4.40840000     -1.83309000
  O     -2.97841000      5.26048000     -2.72262000
  C     -3.42440000     -1.99668000      4.37051000
  O     -3.96077000     -2.05041000      5.54272000
  C     -2.77601000     -5.01328000     -2.55881000
  O     -3.73457000     -5.81035000     -2.17635000
  C      1.55742000     -3.77877000      3.58344000
  O      2.52205000     -4.52114000      3.98856000
  C     -5.04264000     -1.12828000     -2.95503000
  O     -6.17010000     -1.58992000     -3.37208000
  C      2.31262000      5.14418000     -0.75029400
  O      3.45865000      5.65277000     -0.45509100
  C      1.33098000      0.57963500      5.75328000
  O      1.22476000      0.08173640      6.93522000
  C      0.50735000     -3.74755000      4.74626000
  O     -0.15601500     -4.73790000      5.25545000
  C     -5.25244000      1.46142000      1.32317000
  O     -5.83803000      1.13932000      2.42265000
  C      5.33487000      1.51545000      2.71410000
  O      6.58347000      1.21037000      2.77336000
  C      2.15701000      5.39560000      1.93514000
  O      3.02625000      6.35339000      1.82467000
  C     -1.34793000     -1.04673000     -5.15901000
  O     -1.33001000     -1.13846000     -6.53166000
  C      0.02053440      4.06219000     -3.83398000
  O     -0.33248400      5.04992000     -4.67127000
  C      4.85800000     -2.92360000     -2.08547000
  O      5.71960000     -3.84698000     -1.86686000
  C     -3.90547000     -4.20920000      1.00239000
  O     -4.93366000     -4.92875000      1.30244000
  C     -5.62372000      1.67027000     -1.29396000
  O     -6.55230000      2.39912000     -1.79924000
  C     -3.45524000     -3.27729000      3.51814000
  O     -4.03187000     -4.35589000      3.94021000
  C      4.43756000      2.10903000      3.68064000
  O      4.83105000      2.60190000      4.80378000
  C      0.76449700      5.60071000      1.32840000
  O      0.60108400      6.87353000      1.23442000
  C      1.14863000      5.99364000     -1.27287000
  O      1.13423000      7.23553000     -1.59099000
  C     -1.50576000      3.04699000      4.23610000
  O     -1.83266000      3.47094000      5.45936000
  C      1.25872000      1.97653000      5.16395000
  O      1.05559000      2.89444000      6.05534000
  C      4.93555000     -1.59788000     -2.61627000
  O      5.92532000     -0.92217900     -3.07519000
  C      2.54611000      4.25635000      2.86416000
  O      3.48688000      4.76525000      3.58139000
  C     -0.52364500      2.24442000     -5.93441000
  O     -0.86965500      3.33980000     -6.50307000
  C      0.10815600     -5.55207000      2.56889000
  O     -0.07892500     -6.40305000      3.51481000
  C     -3.19789000     -3.82372000     -3.38569000
  O     -4.08299000     -4.29121000     -4.18779000
  C      1.32241000     -5.68296000      1.77133000
  O      2.39447000     -6.38927000      1.85371000
  C      3.75651000      3.24538000     -3.37197000
  O      4.80843000      3.67689000     -3.94592000
  C     -4.85297000      2.88593000      0.81905500
  O     -5.95415000      3.56109000      0.78898700
  C      3.80079000     -0.19737800      4.63060000
  O      4.50051000     -0.00839288      5.71195000
  C      1.04091000     -2.47634000      5.46496000
  O      1.58884000     -2.94267000      6.52105000
  C     -1.28853000     -5.23243000     -2.48586000
  O     -1.07165000     -6.45854000     -2.79460000
  C      2.34968000     -0.91996700     -5.20282000
  O      2.90504000     -0.90895500     -6.35802000

