#B3LYP/6-31+G(d) OPT FREQ

110, Energy = -12019.69008099 au

0 1
 Ni      0.13753500     -3.47999000     -2.45047000
 Ni     -1.42680000     -0.26656200     -1.29415000
 Ni      0.45950600     -4.35543000      0.38822300
 Ni     -0.63319700      4.10414000     -0.39033200
 Ni     -1.28853000      2.44746000     -2.19084000
 Ni     -3.35450000      0.49000600      0.73520500
 Ni     -1.08414000     -0.89888400      1.37248000
 Ni     -0.23846600      3.62201000      2.61337000
 Ni      0.27985100     -1.05049000     -3.59578000
 Ni      3.24130000     -0.48141400     -0.78691400
 Ni      0.69403400     -1.68443000     -0.54948900
 Ni      2.54616000     -2.68905000     -2.41393000
 Ni      3.62206000      2.26829000     -1.78481000
 Ni      1.66767000     -0.27779900      3.84583000
 Ni      1.34941000      0.26664200      1.21693000
 Ni      2.70317000      0.33407300     -3.19046000
 Ni      1.41149000      3.40962000     -2.07989000
 Ni     -2.16890000     -2.50824000     -3.32426000
 Ni      3.39584000     -1.17372000      1.77985000
 Ni     -1.76358000     -2.99534000     -0.47914000
 Ni      4.10235000      1.31477000      0.84880100
 Ni      0.95335000      0.92226900     -1.36764000
 Ni     -1.84512000      0.53011700     -4.14592000
 Ni     -3.80166000     -1.51721000     -1.00935000
 Ni      1.96678000      2.38165000      3.00003000
 Ni     -0.45051100      1.15846000      3.57393000
 Ni      2.69187000     -3.31106000     -0.07788520
 Ni     -1.27662000     -3.50358000      1.97295000
 Ni     -3.13850000      3.00338000     -0.08947800
 Ni      1.84647000      2.96082000      0.43524300
 Ni     -2.74799000      2.45063000      2.50731000
 Ni     -3.00759000     -0.14283700      3.56648000
 Ni      0.27849900      1.68096000     -4.02550000
 Ni     -0.82208900      1.66799000      0.57951600
 Ni     -3.56021000     -2.24290000      1.63621000
 Ni     -0.50048100     -1.47967000      3.94246000
 Ni     -3.67789000      1.14643000     -1.81181000
 Ni      1.08772000     -2.51232000      2.15371000
  C      1.06886000     -5.00614000      2.93064000
  O      1.26075000     -6.15612000      3.48791000
  C     -4.86272000      3.29718000      0.62206900
  O     -6.04219000      3.60848000      0.21421300
  C     -0.67965800      3.27074000     -4.75509000
  O     -0.42981800      4.43075000     -5.24312000
  C     -2.16313000      1.27870000      4.89509000
  O     -2.40610000      1.46293000      6.20470000
  C      0.25049000      0.07562730      5.39227000
  O      0.19744400      0.39695300      6.63670000
  C     -2.55807000     -4.80604000      0.81560100
  O     -3.24377000     -5.85225000      1.16768000
  C      2.78349000      4.17404000      2.02040000
  O      3.51861000      5.24484000      2.22436000
  C     -5.49376000     -0.20867600      2.80447000
  O     -6.31888000     -1.18774000      2.60466000
  C     -3.63113000     -1.35671000     -4.47102000
  O     -4.60760000     -1.87066000     -5.24249000
  C      4.14423000      2.18770000     -3.94993000
  O      4.94716000      2.01711000     -4.93778000
  C      6.24672000      1.57348000      1.54269000
  O      7.34743000      1.20197000      0.98957000
  C      0.58422500     -0.63744500     -5.41293000
  O      1.34932000     -1.22071000     -6.27404000
  C     -5.73063000      0.94187500     -1.02708000
  O     -6.87053000      1.47019000     -1.27279000
  C     -3.61912000     -2.40805000      3.81838000
  O     -4.54872000     -3.00532000      4.68895000
  C     -4.99339000      2.56656000      1.97861000
  O     -5.53032000      3.01092000      3.05803000
  C     -0.75810000      0.06479930     -5.76667000
  O     -1.14562000      0.18807400     -6.99309000
  C      3.74893000      3.53266000     -3.44477000
  O      3.92464000      4.71724000     -3.90416000
  C      1.05830000     -3.77414000      3.78375000
  O      1.30385000     -3.89313000      5.04536000
  C     -2.04867000      2.55990000     -4.66769000
  O     -3.08084000      3.07964000     -5.24631000
  C      0.76884600     -6.89165000     -0.00163381
  O      1.26730000     -7.77043000     -0.82825500
  C     -4.86098000     -3.32591000      0.05337030
  O     -5.45186000     -4.40155000     -0.10916400
  C     -1.77831000      4.59145000     -2.27721000
  O     -2.24130000      5.45301000     -3.25822000
  C     -2.88741000     -4.82799000     -1.46490000
  O     -3.59333000     -5.87067000     -1.21526000
  C     -5.30054000      0.93763800      1.68556000
  O     -6.51311000      0.91248700      1.21271000
  C      3.23703000      4.32955000     -0.91342600
  O      4.08311000      5.43471000     -0.91174900
  C     -0.52913100     -6.19329000     -0.22018400
  O     -1.47726000     -6.99948000     -0.51487200
  C      5.21082000      0.60100300     -1.01120000
  O      6.44016000      0.31335200     -1.30130000
  C     -1.95906000      4.84424000      2.91084000
  O     -2.15119000      6.08158000      3.31290000
  C      1.33121000     -6.24131000      1.26242000
  O      2.39500000     -6.84970000      1.63658000
  C      2.54525000     -4.94058000     -2.49592000
  O      2.66789000     -5.74075000     -3.49392000
  C     -2.82092000     -4.20543000     -2.77670000
  O     -3.22775000     -4.98101000     -3.73871000
  C      3.01896000     -5.23410000     -1.14495000
  O      3.44052000     -6.38047000     -0.76269100
  C     -0.50645600     -2.90364000     -4.44315000
  O     -0.36776200     -3.28325000     -5.78157000
  C      0.33805900      2.85383000      4.48941000
  O      0.18380100      3.26261000      5.70075000
  C     -4.81716000      0.33595500      4.03263000
  O     -5.68623000      0.90069000      4.77568000
  C      4.81278000     -2.20045000     -2.86469000
  O      5.80338000     -2.98794000     -3.10398000

