110
Energy = -12030.88925263 au
 Ni      0.07262280     -3.60889000     -2.22700000
 Ni     -1.40291000     -0.25920700     -1.16169000
 Ni      0.42667500     -4.44530000      0.40471100
 Ni     -0.67919100      4.64889000     -0.22141400
 Ni     -1.14437000      2.36298000     -1.87777000
 Ni     -3.26548000      0.52800100      0.67851300
 Ni     -0.97252500     -0.93204200      1.28613000
 Ni     -0.31546800      3.66165000      2.24236000
 Ni      0.41098300     -1.05754000     -3.06165000
 Ni      3.43214000     -0.51409900     -0.78606300
 Ni      0.78848700     -1.71165000     -0.52685600
 Ni      2.45664000     -2.35617000     -2.60426000
 Ni      3.81329000      2.15721000     -1.47094000
 Ni      2.09217000     -0.33475100      3.92049000
 Ni      1.47970000      0.18986400      1.19223000
 Ni      2.85626000      0.36041600     -3.23667000
 Ni      1.56199000      3.46748000     -2.13042000
 Ni     -2.17432000     -2.08181000     -2.96628000
 Ni      3.74047000     -1.09508000      1.84014000
 Ni     -1.72524000     -3.05273000     -0.43861900
 Ni      4.12148000      1.21944000      1.19855000
 Ni      1.05722000      0.85743600     -1.30175000
 Ni     -1.93137000      0.34966900     -3.63467000
 Ni     -3.85900000     -1.46776000     -0.96337100
 Ni      2.29736000      2.00269000      2.98612000
 Ni     -0.24499300      0.95833600      3.00929000
 Ni      3.15337000     -3.23193000     -0.17808700
 Ni     -1.10898000     -3.45564000      2.08976000
 Ni     -2.93577000      3.19781000     -0.04518970
 Ni      1.73398000      2.79943000      0.36039900
 Ni     -2.46362000      2.44996000      2.46821000
 Ni     -2.71643000     -0.19605300      3.08474000
 Ni      0.54111300      1.51845000     -3.73505000
 Ni     -0.74813600      1.65414000      0.54450600
 Ni     -3.60009000     -1.93841000      1.37938000
 Ni     -0.35433600     -1.58817000      3.91256000
 Ni     -3.81135000      1.19289000     -1.66247000
 Ni      1.31539000     -2.54881000      1.99878000
  C      5.20170000     -2.76924000     -0.16829500
  O      6.03814000     -3.64789000      0.28373400
  C      1.42467000     -3.24283000     -4.65240000
  O      1.20791000     -4.14468000     -5.53223000
  C      0.92089200     -5.42492000      2.30828000
  O      0.78731300     -6.58129000      2.85732000
  C      4.82837000     -2.62108000     -1.66851000
  O      5.91344000     -2.68247000     -2.34627000
  C      4.21195000     -0.06939030      4.46477000
  O      4.76478000     -0.68335700      5.45291000
  C     -1.65629000      5.01078000     -2.20856000
  O     -2.05261000      6.12812000     -2.78648000
  C      5.94391000      1.28425000     -0.93390800
  O      6.91400000      2.07251000     -1.13257000
  C      4.04516000      1.59439000      4.38793000
  O      4.41307000      2.39519000      5.32371000
  C     -5.57059000     -0.61038600      0.94337800
  O     -6.77390000     -0.38458100      0.55689100
  C      0.80935500      0.03283820      5.81422000
  O      1.03042000      0.46622600      6.98236000
  C     -2.60754000      5.62619000      0.32889800
  O     -3.38683000      6.64671000      0.33464800
  C     -2.22218000      3.04026000      4.75289000
  O     -2.79712000      3.46170000      5.82624000
  C     -5.30200000     -0.74815200      2.41497000
  O     -6.22678000     -0.62570600      3.28871000
  C     -1.87755000      5.10909000      2.73265000
  O     -2.70201000      5.79424000      3.44252000
  C      4.49917000      3.21349000     -3.24744000
  O      5.65834000      3.76239000     -3.31042000
  C      0.14695000     -3.73088000      4.56921000
  O      0.63855700     -4.38605000      5.53448000
  C      3.67041000      2.29097000     -4.34336000
  O      4.21269000      2.09767000     -5.48999000
  C     -1.72774000     -5.25330000     -1.50347000
  O     -2.15384000     -6.14096000     -2.31966000
  C      2.31701000     -5.32967000     -2.25072000
  O      2.34975000     -6.18208000     -3.19035000
  C     -5.16195000      2.16592000      0.00012683
  O     -6.42867000      2.41681000      0.20122000
  C     -6.06878000      0.65981500     -2.13004000
  O     -7.22702000      1.05578000     -1.72571000
  C      1.24042000      5.91693000     -0.30512000
  O      1.51780000      7.11916000      0.04915390
  C     -4.06709000     -3.76684000     -0.30252200
  O     -4.72806000     -4.81289000     -0.49348000
  C      2.03097000     -1.94920000     -5.00480000
  O      2.35944000     -1.65288000     -6.20430000
  C     -1.58881000      6.03147000      1.53525000
  O     -1.09015000      7.20377000      1.62210000
  C      3.02276000     -5.27959000     -1.01243000
  O      3.65029000     -6.35893000     -0.69627200
  C      5.04809000      0.79839900      3.27524000
  O      6.32217000      0.95175900      3.36500000
  C      3.03196000      3.73275000     -3.85805000
  O      2.99651000      4.82015000     -4.54299000
  C     -3.80000000     -1.28972000     -4.50628000
  O     -4.71534000     -1.64864000     -5.27268000
  C     -1.90795000     -5.45966000     -0.04105600
  O     -2.50552000     -6.46352000      0.47643800
  C      3.44682000      4.30674000     -0.70734300
  O      4.23191000      5.36200000     -0.59070000
  C      5.19394000      0.30668600     -1.92521000
  O      6.24146000     -0.18890200     -2.50219000
  C      0.38590200     -6.77805000     -0.79938200
  O     -0.49477200     -7.71569000     -0.86888500
  C      5.90431000      0.45225900      0.46219100
  O      6.99667000      0.82650700      1.01435000
  C      1.89609000     -4.44138000      2.80917000
  O      2.75841000     -4.82558000      3.68335000
  C      5.80123000     -1.22086000      0.40318400
  O      7.01619000     -1.45804000      0.06808660
