#B3LYP/6-31+G(d) OPT FREQ

110, Energy = -12252.97240496 au

0 1
 Ni      0.24259000     -3.55186000     -2.28972000
 Ni     -1.37906000     -0.26193900     -1.17687000
 Ni      0.58519400     -4.46958000      0.31348700
 Ni     -0.56266200      4.20407000     -0.33606600
 Ni     -1.10310000      2.48927000     -2.20790000
 Ni     -3.59082000      0.48739200      0.96782900
 Ni     -1.13736000     -0.97816100      1.41024000
 Ni     -0.38502600      3.64296000      2.20560000
 Ni      0.44971500     -0.97051400     -3.19426000
 Ni      3.25486000     -0.51771300     -0.85391300
 Ni      0.77279100     -1.68764000     -0.53660800
 Ni      2.64929000     -2.61483000     -2.70059000
 Ni      3.55213000      2.20842000     -1.75986000
 Ni      2.02160000     -0.40397200      3.77918000
 Ni      1.38202000      0.21179300      1.20132000
 Ni      2.78490000      0.26894800     -3.34258000
 Ni      1.28587000      3.54780000     -2.54805000
 Ni     -2.12192000     -2.32867000     -2.82415000
 Ni      3.64590000     -1.10059000      1.86972000
 Ni     -1.79390000     -3.10987000     -0.31747700
 Ni      3.74585000      1.48577000      1.02874000
 Ni      1.01177000      0.95807400     -1.42850000
 Ni     -1.67231000      0.51681800     -3.73300000
 Ni     -3.76948000     -1.40938000     -0.73194000
 Ni      2.34236000      2.07985000      3.03473000
 Ni     -0.39806400      0.90426900      3.16447000
 Ni      3.02025000     -3.12156000     -0.27237000
 Ni     -1.13644000     -3.95978000      2.27164000
 Ni     -2.79950000      3.04435000     -0.15387600
 Ni      1.61204000      2.75336000      0.39795700
 Ni     -2.64420000      2.32415000      2.39695000
 Ni     -2.98955000     -0.22330300      3.63291000
 Ni      0.63230600      1.60512000     -4.26547000
 Ni     -0.79453900      1.59120000      0.54149300
 Ni     -3.56845000     -2.29353000      1.71936000
 Ni     -0.53766700     -1.73723000      4.08229000
 Ni     -3.51740000      1.10137000     -1.70300000
 Ni      1.11963000     -2.32868000      2.05641000
  C      4.41849000      1.94638000     -3.77071000
  O      5.60568000      2.33444000     -4.10532000
  C      3.82101000      0.57127900      4.28592000
  O      4.43715000      0.89803700      5.36773000
  C      0.49900900      0.09592960     -5.47436000
  O      0.68134000     -0.15493900     -6.76477000
  C      4.94880000     -0.38394600      3.61931000
  O      6.21859000     -0.89055500      3.85486000
  C      3.61145000      3.53183000      2.25066000
  O      4.30330000      4.60610000      2.57660000
  C     -1.82490000     -2.53927000      5.53672000
  O     -1.36252000     -2.70772000      6.73037000
  C      5.10523000     -2.50268000     -1.15683000
  O      6.07653000     -3.03675000     -0.50845500
  C      1.40872000     -5.76462000      1.54872000
  O      2.21237000     -6.75699000      1.46593000
  C     -4.73794000      0.69148400      3.46924000
  O     -5.77955000      0.41985100      4.17507000
  C     -1.24941000      2.55599000     -4.84212000
  O     -1.76263000      3.36448000     -5.76000000
  C      4.59150000      3.90324000     -2.41340000
  O      5.77034000      4.40663000     -2.45792000
  C      3.53260000      4.43094000     -3.32694000
  O      3.56348000      5.65324000     -3.74983000
  C     -2.72261000     -5.29797000      2.42457000
  O     -2.94308000     -6.45321000      1.92957000
  C      1.80001000     -3.22017000     -4.32598000
  O      2.10378000     -3.64619000     -5.53062000
  C     -4.14399000     -3.79129000      0.64514000
  O     -4.94745000     -4.83026000      0.74428000
  C     -2.46419000     -3.90491000      4.76894000
  O     -3.23116000     -4.76583000      5.39049000
  C     -1.76942000      0.68657300      5.02368000
  O     -1.87784000      1.14133000      6.27378000
  C      2.22542000      2.29684000     -5.44738000
  O      1.85096000      2.26858000     -6.67544000
  C     -2.16738000      4.34653000     -2.25755000
  O     -2.59295000      5.20033000     -3.17754000
  C     -2.43059000     -4.31869000     -2.96874000
  O     -3.37704000     -5.12309000     -3.30459000
  C     -5.29476000      0.73667800     -0.10972900
  O     -6.59164000      0.86930400      0.19122500
  C     -1.12480000     -4.40178000      4.14300000
  O     -0.77995000     -5.33396000      4.95671000
  C     -3.25802000     -1.86837000      5.00494000
  O     -4.05235000     -1.62241000      5.99602000
  C     -1.80527000     -5.03409000     -0.30673200
  O     -2.68006000     -5.98364000     -0.60076800
  C     -5.27769000     -1.24370000      1.61681000
  O     -6.53424000     -1.21582000      2.02551000
  C     -1.79403000      5.06486000      2.00822000
  O     -2.07021000      6.18598000      2.60681000
  C      3.65772000      1.57741000     -5.08176000
  O      4.19130000      1.38821000     -6.24364000
  C     -3.62895000     -2.91470000      3.79673000
  O     -4.79988000     -3.44556000      3.90515000
  C     -4.74885000      1.74849000      2.33757000
  O     -5.75113000      2.49187000      1.98415000
  C      5.13228000     -1.07304000     -2.00566000
  O      6.09085000     -0.24099000     -2.21405000
  C      4.77692000     -2.48383000     -2.80430000
  O      5.36756000     -3.07819000     -3.77646000
  C      2.45581000      3.64299000     -4.56634000
  O      2.58723000      4.47511000     -5.54247000
  C      0.05105930      4.76034000     -3.35801000
  O     -0.05683480      5.71240000     -4.22121000
  C      2.49499000     -4.76235000     -1.58515000
  O      3.12217000     -5.91544000     -1.92101000
  C      0.76118600     -5.22687000      2.74844000
  O      1.16816000     -5.74807000      3.85467000
  C      1.27850000     -2.77742000      4.44852000
  O      1.67729000     -3.75194000      5.26846000

