#B3LYP/6-31+G(d) OPT FREQ

110, Energy = -12307.38123360 au

0 1
 Ni      0.19744900     -3.52865000     -2.39879000
 Ni     -1.46124000     -0.29401500     -1.28424000
 Ni      0.89743300     -4.44973000      0.09796450
 Ni     -0.35473400      4.40174000     -0.24599700
 Ni     -1.11912000      2.22394000     -2.07417000
 Ni     -3.32111000      0.45075400      0.66566600
 Ni     -1.08336000     -0.88609500      1.28304000
 Ni      0.05242260      3.68669000      2.17727000
 Ni      0.35130000     -1.07790000     -3.26185000
 Ni      3.46731000     -0.71027300     -0.72561200
 Ni      0.77067000     -1.70109000     -0.60931500
 Ni      2.69607000     -2.52950000     -2.53466000
 Ni      3.73882000      2.06454000     -1.78886000
 Ni      2.20857000     -0.28549300      3.62322000
 Ni      1.40180000      0.22134100      1.18760000
 Ni      2.98802000     -0.00817385     -3.31262000
 Ni      1.46187000      3.42893000     -2.10877000
 Ni     -2.23525000     -2.29084000     -3.25978000
 Ni      4.05963000     -1.17689000      1.72653000
 Ni     -1.87877000     -3.04421000     -0.49998900
 Ni      3.73053000      1.29311000      1.28848000
 Ni      1.09930000      0.88230400     -1.38674000
 Ni     -1.99058000      0.18189300     -3.92891000
 Ni     -3.90449000     -1.50950000     -1.06053000
 Ni      2.12446000      2.07114000      3.13833000
 Ni     -0.31279600      1.04699000      3.30151000
 Ni      3.50428000     -3.09082000      0.11322800
 Ni     -1.38539000     -3.58445000      1.80352000
 Ni     -2.74446000      3.20199000     -0.44256600
 Ni      1.87490000      2.98202000      0.48397300
 Ni     -2.37896000      2.21014000      2.42462000
 Ni     -2.74014000     -0.22622500      3.67886000
 Ni      0.56815900      1.43865000     -4.10261000
 Ni     -0.68009700      1.67717000      0.50192000
 Ni     -3.74894000     -2.19099000      1.65316000
 Ni     -0.44168800     -1.54014000      3.68306000
 Ni     -3.79539000      1.07743000     -1.93134000
 Ni      1.34889000     -2.42084000      1.86275000
  C     -3.65998000     -1.48838000      4.81208000
  O     -3.75334000     -1.50167000      6.09722000
  C      4.72378000     -0.48258500      4.15539000
  O      4.78924000     -1.03503000      5.29792000
  C     -3.33223000      3.99308000     -2.43001000
  O     -4.15314000      4.13117000     -3.40030000
  C     -0.38214500      3.41358000     -4.83176000
  O     -0.67409800      3.91401000     -5.96826000
  C      1.06235000      5.51933000      1.47746000
  O      0.94301500      6.78965000      1.65528000
  C     -2.44320000      4.97871000     -1.79278000
  O     -2.41630000      6.23003000     -2.06454000
  C     -0.99926000     -0.84820400     -5.75975000
  O     -1.28145000     -0.25997600     -6.86755000
  C     -4.22074000     -2.33798000      3.77385000
  O     -5.09695000     -3.22160000      4.12134000
  C      2.44193000     -5.24642000     -2.14212000
  O      3.06546000     -5.79543000     -3.09937000
  C     -1.58515000     -5.24434000      0.60981100
  O     -2.31847000     -6.34835000      0.61897200
  C     -3.87078000     -3.94399000      0.86954700
  O     -4.70507000     -4.98167000      0.77627600
  C      2.96093000     -0.42041000     -5.18421000
  O      3.58451000     -1.13868000     -6.06280000
  C      4.35476000      1.00642000      3.66929000
  O      5.38916000      1.58393000      4.18565000
  C     -5.88164000     -0.67384400     -0.31022900
  O     -7.04502000     -1.11171000     -0.64947000
  C      5.10095000      0.08054490     -2.58665000
  O      6.08534000     -0.60367300     -3.07809000
  C      4.84110000     -1.63531000      0.14795000
  O      6.17141000     -1.72951000     -0.16422300
  C     -5.39143000     -0.93576900      1.21039000
  O     -6.41051000     -0.81918600      1.97678000
  C     -3.97367000     -1.84476000     -4.33301000
  O     -4.61310000     -2.72935000     -5.15094000
  C     -5.50478000      0.82254300     -0.67406800
  O     -6.52318000      1.58774000     -0.55237500
  C      2.58169000     -4.38592000      1.82258000
  O      3.16990000     -5.26655000      2.63876000
  C     -4.08154000      0.03595250     -4.15650000
  O     -4.97548000      0.14845700     -5.09305000
  C     -3.30197000     -3.80105000     -1.98974000
  O     -3.91732000     -4.99381000     -2.18615000
  C      2.06944000     -5.71132000     -0.82730600
  O      2.56874000     -6.83214000     -0.42042700
  C      3.74125000      3.10355000     -3.34833000
  O      4.70499000      3.62481000     -4.07581000
  C      0.63662500     -1.10899000     -5.72811000
  O      1.16463000     -2.04320000     -6.46922000
  C     -1.36042000     -2.23601000     -5.06849000
  O     -1.17986000     -3.24273000     -5.83569000
  C     -2.23484000      1.08990000      4.94580000
  O     -2.47362000      1.29116000      6.23068000
  C      1.66888000      0.11783700     -5.78616000
  O      1.38765000      0.68212900     -6.91901000
  C      1.40336000     -3.49798000     -4.23170000
  O      1.53628000     -4.17316000     -5.35019000
  C      0.93882500      2.02117000      4.90652000
  O      0.83910700      2.52204000      6.12257000
  C      1.53393000      5.43806000     -1.10971000
  O      2.27292000      6.52773000     -0.92227300
  C      2.38907000      4.78896000      1.30759000
  O      3.57131000      5.26891000      1.41012000
  C      5.52532000      1.38594000     -1.95092000
  O      6.64572000      1.97388000     -1.76595000
  C      4.53289000     -2.83950000     -2.15014000
  O      5.72292000     -3.11875000     -2.67238000
  C      4.93886000     -4.50253000     -0.03008030
  O      6.16448000     -4.33079000     -0.35084200
  C      5.57453000     -1.03984000      3.01678000
  O      6.82419000     -0.84464400      3.25595000

