#B3LYP/6-31+G(d) OPT FREQ

110, Energy = -12498.99613076 au

0 1
 Ni      0.11266600     -4.06644000     -2.43755000
 Ni     -1.35208000     -0.24865700     -1.27175000
 Ni      0.72831600     -4.38497000      0.09437590
 Ni     -0.61258500      4.82903000     -0.29270400
 Ni     -1.21593000      2.57929000     -2.04567000
 Ni     -3.22517000      0.68898200      0.86558800
 Ni     -0.97890500     -0.93595700      1.32305000
 Ni     -0.05928400      3.99122000      2.39015000
 Ni      0.24031400     -1.23483000     -3.42691000
 Ni      3.03182000     -0.55972400     -0.66378400
 Ni      0.71721700     -1.76269000     -0.55387900
 Ni      2.22665000     -2.50588000     -2.53321000
 Ni      3.20312000      2.26713000     -1.81345000
 Ni      2.09710000     -0.65706800      3.92426000
 Ni      1.40943000      0.17055400      1.22837000
 Ni      2.52688000      0.08388210     -3.30136000
 Ni      1.17229000      3.55546000     -2.25214000
 Ni     -2.13349000     -2.31447000     -3.32067000
 Ni      3.76398000     -1.25887000      1.88920000
 Ni     -1.61439000     -3.02345000     -0.49692400
 Ni      3.96810000      1.20723000      1.02308000
 Ni      0.93332800      0.92347500     -1.34525000
 Ni     -1.94067000      0.20851000     -3.87580000
 Ni     -3.62250000     -1.38725000     -1.28805000
 Ni      2.03684000      2.06634000      2.83982000
 Ni     -0.44865700      1.08763000      3.07580000
 Ni      2.85223000     -3.20813000      0.31981500
 Ni     -1.01898000     -3.63114000      1.98363000
 Ni     -2.93234000      3.38306000     -0.06657170
 Ni      1.57520000      3.05061000      0.39340300
 Ni     -2.56309000      2.62221000      2.64912000
 Ni     -2.82988000     -0.25678400      3.26484000
 Ni      0.64151800      1.52813000     -4.00089000
 Ni     -0.80160200      1.79290000      0.54839700
 Ni     -3.19706000     -2.20225000      1.45479000
 Ni     -0.68927800     -1.80020000      3.92828000
 Ni     -3.49436000      1.25246000     -1.67921000
 Ni      1.25027000     -2.51993000      2.22712000
  C     -1.59642000     -4.89387000     -1.69078000
  O     -2.33794000     -6.00583000     -1.85077000
  C     -2.36779000      4.94832000     -2.51195000
  O     -2.76057000      5.08116000     -3.74096000
  C     -4.37674000      1.54152000      3.00436000
  O     -5.63155000      1.83128000      3.37671000
  C      0.02708080     -0.98937300     -5.65700000
  O      0.28274400     -2.00387000     -6.42618000
  C      1.44393000     -5.57905000     -2.07374000
  O      1.51483000     -6.53891000     -2.93477000
  C      1.30462000     -3.21235000     -4.38380000
  O      1.99643000     -3.49081000     -5.43522000
  C      3.31619000     -2.83997000      3.28295000
  O      3.88495000     -3.83127000      3.99002000
  C      3.13405000     -4.75189000      1.49969000
  O      4.25826000     -5.37639000      1.57444000
  C     -0.18338800      4.18417000     -3.44221000
  O     -0.43885000      5.15314000     -4.35405000
  C     -1.72396000      2.84603000      4.39744000
  O     -2.11462000      3.22090000      5.59986000
  C     -4.93720000      1.84096000      0.23953400
  O     -6.22045000      1.91433000      0.57443300
  C     -2.31796000      5.22661000      2.25199000
  O     -3.30841000      5.48230000      3.05345000
  C      2.08808000     -5.34621000      2.38324000
  O      2.33617000     -6.47686000      2.95684000
  C     -3.43286000      4.48317000     -1.53510000
  O     -4.32611000      5.44635000     -1.58202000
  C      3.64266000      3.52204000     -3.27932000
  O      4.63797000      4.32640000     -3.45053000
  C      5.45010000      0.44679400      2.93198000
  O      6.69323000      0.56805900      3.26067000
  C     -1.38509000     -0.37725600     -5.61354000
  O     -1.89418000     -0.34411000     -6.79393000
  C      0.73615500     -4.65664000      2.75316000
  O      0.41205000     -5.24997000      3.87720000
  C      2.70427000      3.07398000     -4.35299000
  O      2.92185000      3.28765000     -5.59474000
  C      2.17301000     -5.64853000     -0.77346500
  O      3.05116000     -6.53168000     -0.45600900
  C      3.51147000     -0.12922200      5.05272000
  O      3.71443000     -0.40204900      6.29282000
  C      1.21252000      5.56169000     -0.14805800
  O      1.59184000      6.74221000     -0.50404200
  C     -2.65464000     -2.13786000      4.46380000
  O     -3.31588000     -2.74821000      5.44326000
  C     -3.88094000     -1.63067000     -3.90563000
  O     -4.77775000     -2.00350000     -4.80261000
  C      1.06237000     -2.68598000      4.76929000
  O      1.37473000     -3.61969000      5.64512000
  C      2.20312000      5.21079000      1.02643000
  O      3.45244000      5.57226000      1.00248000
  C     -0.03784810     -4.15822000     -4.58790000
  O      0.09361890     -5.31208000     -5.16640000
  C     -1.35589000     -3.33435000     -4.73676000
  O     -1.77151000     -3.50496000     -5.94180000
  C     -2.17409000      5.50323000      0.66751100
  O     -2.51896000      6.74554000      0.53944700
  C     -0.92500900      5.62995000      2.73381000
  O     -0.61407300      6.83961000      3.10321000
  C      5.42564000     -0.02593460      1.34514000
  O      6.46571000     -0.21681200      0.59469200
  C      1.17425000      0.12381500     -5.40172000
  O      1.59559000      0.21479700     -6.61935000
  C     -3.06194000     -4.39205000      1.16000000
  O     -3.84127000     -5.46920000      1.12750000
  C      4.42055000      0.78098300      4.26016000
  O      5.05936000      1.72482000      4.88015000
  C      1.51099000      5.07369000      2.40445000
  O      1.87056000      5.96007000      3.26662000
  C     -1.31236000      5.79676000     -1.78273000
  O     -1.42755000      7.04837000     -2.05486000

