#B3LYP/6-31+G(d) OPT FREQ

110, Energy = -12384.17755806 au

0 1
 Ni      0.39282100     -3.58315000     -2.21962000
 Ni     -1.44723000     -0.21122600     -1.14693000
 Ni      0.65796800     -4.60504000      0.04076800
 Ni     -0.76357300      4.14232000     -0.22920600
 Ni     -1.29680000      2.45243000     -2.09933000
 Ni     -3.23930000      0.70197700      0.78620800
 Ni     -0.98390100     -0.87011100      1.39514000
 Ni     -0.02027690      3.49141000      2.54699000
 Ni      0.47615200     -1.23167000     -3.42873000
 Ni      3.29667000     -0.65106700     -0.52469700
 Ni      0.78030500     -1.67349000     -0.53475500
 Ni      2.71403000     -2.41918000     -2.33140000
 Ni      3.46601000      1.77307000     -1.33182000
 Ni      2.06270000     -0.27822600      3.93731000
 Ni      1.45550000      0.15528700      1.29772000
 Ni      2.88191000      0.02019700     -3.13724000
 Ni      1.17410000      3.23624000     -2.04350000
 Ni     -1.91135000     -2.14711000     -3.02013000
 Ni      3.78086000     -1.45538000      2.12511000
 Ni     -1.68843000     -2.91157000     -0.43492900
 Ni      4.05763000      0.99586900      1.25423000
 Ni      0.95114600      0.77299100     -1.35098000
 Ni     -1.77463000      0.36510700     -3.61565000
 Ni     -3.85015000     -1.08124000     -0.96407100
 Ni      2.28456000      2.22597000      2.96916000
 Ni     -0.39625700      1.02551000      3.25941000
 Ni      2.84620000     -3.27217000      0.09870580
 Ni     -1.05103000     -3.42717000      2.20399000
 Ni     -3.08568000      3.05431000      0.01166710
 Ni      1.63523000      2.66376000      0.52258700
 Ni     -2.51712000      2.66151000      2.77236000
 Ni     -2.88448000     -0.00094184      3.32214000
 Ni      0.75349700      1.29893000     -3.99119000
 Ni     -0.81400000      1.64934000      0.62134100
 Ni     -3.42151000     -1.81046000      1.54608000
 Ni     -0.33062200     -1.68972000      3.96046000
 Ni     -3.84558000      1.54495000     -1.89231000
 Ni      1.29887000     -2.37733000      2.03332000
  C     -5.34861000      0.52338400      1.72806000
  O     -6.22864000      1.32607000      2.22032000
  C      1.26594000     -1.25911000     -5.20276000
  O      1.33153000     -2.31898000     -5.93568000
  C      4.66972000     -0.79658100      4.68667000
  O      5.20091000     -1.59938000      5.53255000
  C     -5.69286000     -0.02949510      0.25843800
  O     -6.57482000     -0.95749700      0.41338800
  C     -3.17289000     -4.59796000     -0.24353200
  O     -3.46104000     -5.61635000     -0.97006900
  C      5.11255000     -0.57049900     -2.72403000
  O      5.94108000     -0.20342500     -3.64309000
  C     -4.45234000      4.72671000     -1.74870000
  O     -5.10311000      5.81107000     -2.09913000
  C     -6.16519000      1.22741000     -0.68156100
  O     -7.06960000      1.83356000      0.01032240
  C      1.91645000     -5.26394000     -1.96910000
  O      2.22245000     -6.12550000     -2.87444000
  C      1.36679000     -4.25058000      3.49919000
  O      1.87296000     -5.40029000      3.22705000
  C     -1.13800000     -2.24442000     -4.85020000
  O     -1.24796000     -2.74140000     -6.07231000
  C      5.52594000     -1.02144000      3.33500000
  O      6.49653000     -1.85612000      3.52668000
  C      2.78433000      4.14525000      2.56849000
  O      3.64749000      4.96185000      3.08091000
  C     -4.62454000      3.54453000      3.27757000
  O     -5.51846000      3.39213000      4.20164000
  C     -3.78752000      3.60193000     -2.89743000
  O     -4.76761000      3.60110000     -3.75899000
  C     -0.93162100     -5.94592000     -0.29397100
  O     -1.10275000     -7.20436000     -0.20707700
  C     -5.94111000      1.28336000     -2.15008000
  O     -7.02088000      1.55960000     -2.78364000
  C      3.63294000     -3.13023000      3.10920000
  O      4.50892000     -4.05921000      3.26846000
  C     -0.78668500      3.70851000      4.36074000
  O     -0.54834400      4.39177000      5.43723000
  C     -5.14584000      3.56644000     -1.01891000
  O     -6.37763000      3.90878000     -0.95658400
  C     -2.55821000      1.50773000      4.72939000
  O     -2.84165000      1.82493000      6.00638000
  C     -3.36668000      4.37565000      3.30306000
  O     -3.42785000      5.65102000      3.36064000
  C     -4.83910000     -0.57837900      2.76353000
  O     -5.88229000     -0.93266000      3.42956000
  C      4.66996000     -2.03613000     -2.44856000
  O      5.65753000     -2.85504000     -2.39309000
  C      5.09881000      0.16678200     -1.25342000
  O      6.33270000      0.06032800     -0.89071400
  C      3.65847000      0.31675600      4.80900000
  O      3.96972000      1.16432000      5.72412000
  C      2.45515000     -3.23093000      4.13513000
  O      2.46055000     -3.26324000      5.41947000
  C     -2.96294000      5.33871000     -1.12182000
  O     -2.58505000      6.44716000     -1.70759000
  C     -4.79189000      5.08127000      1.03150000
  O     -5.73706000      5.92299000      0.86582300
  C     -2.29347000      3.77657000     -3.12932000
  O     -2.03258000      4.83003000     -3.81446000
  C      1.45392000      0.18368900     -5.57317000
  O      1.77927000      0.51672300     -6.77586000
  C      5.58900000      0.27131300      2.45154000
  O      6.66715000      0.84233500      2.84724000
  C      2.61005000     -5.38628000     -0.59194900
  O      3.36025000     -6.36075000     -0.19611400
  C      0.21206000      0.36674500      5.28791000
  O      0.01106660      0.86391100      6.51826000
  C     -5.10467000      3.81097000      1.73910000
  O     -6.31935000      3.34544000      1.72884000
  C      0.01511720     -3.81064000      4.18963000
  O     -0.15550900     -4.50315000      5.26043000

