#B3LYP/6-31+G(d) OPT FREQ

110, Energy = -11895.08944283 au

0 1
 Ni     -0.00000968     -3.57869000     -2.28916000
 Ni     -1.46785000     -0.32241800     -1.20091000
 Ni      0.50247700     -4.32982000      0.27795300
 Ni     -0.51802400      4.36351000     -0.30107100
 Ni     -1.16254000      2.25995000     -1.90789000
 Ni     -3.36828000      0.47830400      0.74350600
 Ni     -1.06017000     -0.92040100      1.34639000
 Ni     -0.04556410      3.65409000      2.57688000
 Ni      0.20130500     -1.10164000     -3.26947000
 Ni      3.08275000     -0.40814600     -0.69598700
 Ni      0.65255900     -1.64882000     -0.56610200
 Ni      2.38700000     -2.27152000     -2.59514000
 Ni      3.55639000      2.10878000     -1.71923000
 Ni      1.62350000     -0.30878000      3.84159000
 Ni      1.36347000      0.24291700      1.21149000
 Ni      2.80959000      0.19793700     -3.59832000
 Ni      1.23639000      3.48212000     -2.17508000
 Ni     -2.17035000     -2.35221000     -3.20101000
 Ni      3.52441000     -1.02806000      1.94776000
 Ni     -1.80001000     -2.94993000     -0.47291300
 Ni      4.04085000      1.30300000      1.09236000
 Ni      0.98213300      0.85919300     -1.34100000
 Ni     -2.02636000      0.30486500     -3.73785000
 Ni     -4.27661000     -1.53841000     -1.00217000
 Ni      2.14654000      2.24563000      2.87293000
 Ni     -0.32242700      0.98336100      3.20657000
 Ni      2.78109000     -2.95891000      0.07369000
 Ni     -1.30707000     -3.49189000      2.33424000
 Ni     -3.09416000      2.88468000      0.00161352
 Ni      1.61181000      2.75341000      0.43242700
 Ni     -2.30850000      2.37019000      2.73330000
 Ni     -2.91474000     -0.35687300      3.15341000
 Ni      0.55970600      1.53440000     -3.77273000
 Ni     -0.77960900      1.63842000      0.60583600
 Ni     -3.68826000     -2.17718000      1.54478000
 Ni     -0.70501600     -1.84977000      4.05731000
 Ni     -3.65338000      0.98947000     -1.71840000
 Ni      1.05923000     -2.28559000      2.01263000
  C      0.39009000     -3.72814000      4.36347000
  O      0.71314600     -4.43186000      5.39928000
  C     -2.31356000     -3.02128000      4.76958000
  O     -2.11254000     -3.63212000      5.86957000
  C     -1.09157000      3.99512000      4.30613000
  O     -1.02434000      4.81019000      5.28338000
  C     -4.50762000     -3.60986000     -2.10995000
  O     -5.49313000     -4.33005000     -2.52633000
  C     -3.57233000     -4.64720000     -0.06992990
  O     -4.28134000     -5.72629000     -0.09130370
  C      4.74338000      0.73558300      3.37483000
  O      5.78000000      0.90823800      4.10275000
  C     -1.89032000     -2.42726000     -5.27860000
  O     -2.48321000     -2.71113000     -6.40228000
  C      5.60955000      1.09010000     -0.46936200
  O      6.88517000      0.91455000     -0.48777000
  C      1.33973000     -5.47327000     -2.84578000
  O      1.48257000     -6.60073000     -3.45501000
  C      1.25249000     -5.51090000      2.19223000
  O      1.78890000     -6.63379000      2.52659000
  C     -2.86784000     -4.58448000      3.26205000
  O     -3.28256000     -5.25423000      4.35287000
  C      3.65264000      1.30537000     -4.86706000
  O      4.53435000      1.32328000     -5.81835000
  C     -3.57144000     -2.42183000      4.35134000
  O     -4.71675000     -2.82182000      4.77492000
  C     -4.34247000     -0.24221000     -4.35742000
  O     -5.55036000     -0.72517400     -4.48900000
  C      1.81319000     -6.10853000     -0.61365600
  O      1.95882000     -7.37642000     -0.76533500
  C     -2.55435000     -4.90697000     -1.33778000
  O     -2.35985000     -6.08762000     -1.56976000
  C     -3.15981000     -4.20501000     -2.69931000
  O     -3.19149000     -4.89439000     -3.84712000
  C     -1.75931000      2.68624000      4.84484000
  O     -2.71977000      2.57633000      5.73397000
  C     -2.11049000      5.44709000     -1.61137000
  O     -2.17299000      6.51454000     -2.34216000
  C     -0.39447200      1.78313000      5.53706000
  O     -0.09840410      2.71739000      6.38781000
  C     -5.02124000     -0.42848900      2.67280000
  O     -6.16945000     -0.20063500      3.21422000
  C     -3.53651000      0.22007800     -5.42217000
  O     -3.94442000      0.31137300     -6.65761000
  C     -5.05495000      2.22739000      0.33111100
  O     -5.98720000      3.00578000      0.78742300
  C      3.45959000      2.73770000     -4.56652000
  O      3.05504000      3.59627000     -5.46302000
  C     -5.81371000      0.82868000      0.33295800
  O     -6.84139000      0.70517200      1.09130000
  C      2.63650000     -1.60813000     -4.83430000
  O      2.86041000     -1.94309000     -6.09995000
  C     -5.08531000     -3.71762000     -0.34476400
  O     -6.31400000     -3.75502000     -0.64297400
  C      1.20196000      5.97450000     -0.17841600
  O      1.43113000      7.20659000      0.13064900
  C      4.03733000      3.15125000     -3.20585000
  O      5.04603000      3.87356000     -3.59418000
  C     -3.01148000     -5.04715000      1.95397000
  O     -3.44453000     -6.25906000      1.88208000
  C      0.36044200      0.42452100      5.54838000
  O      0.62501800      0.18993700      6.79434000
  C     -5.04967000     -3.48216000      1.26559000
  O     -5.67411000     -4.45193000      1.82350000
  C     -0.41770200     -2.01860000     -5.15613000
  O      0.29189700     -2.25581000     -6.21460000
  C     -0.28700000      4.74528000     -3.44041000
  O     -0.33245300      5.74823000     -4.24851000
  C     -5.71272000     -0.35694400     -0.70451000
  O     -6.94950000     -0.70118100     -0.90163300
  C      2.14438000      4.57352000      2.60855000
  O      2.79271000      5.65466000      2.90156000

