#B3LYP/6-31+G(d) OPT FREQ

110, Energy = -12081.81433207 au

0 1
 Ni      0.14291900     -3.48256000     -2.22317000
 Ni     -1.42393000     -0.18193400     -1.14061000
 Ni      0.59492600     -4.39783000      0.09931440
 Ni     -0.65553100      4.49955000     -0.29673600
 Ni     -1.25565000      2.46622000     -2.12824000
 Ni     -3.30572000      0.64858700      0.86448600
 Ni     -0.95631700     -0.85849000      1.36211000
 Ni     -0.04995830      3.96157000      2.19520000
 Ni      0.29525200     -0.90684600     -3.00225000
 Ni      3.45863000     -0.63867200     -0.70084200
 Ni      0.78876500     -1.64510000     -0.45594300
 Ni      2.46012000     -2.38304000     -2.26887000
 Ni      3.53535000      1.79085000     -1.44466000
 Ni      2.05320000     -0.44079600      3.74469000
 Ni      1.45836000      0.25699800      1.21511000
 Ni      2.62800000      0.09950020     -3.32716000
 Ni      1.08169000      3.49351000     -2.14298000
 Ni     -2.13461000     -2.01092000     -2.94887000
 Ni      3.56004000     -1.36810000      1.92387000
 Ni     -1.71956000     -2.89009000     -0.40147800
 Ni      3.93262000      1.30220000      1.00044000
 Ni      0.99476100      0.92387400     -1.31696000
 Ni     -2.01208000      0.41391100     -3.75658000
 Ni     -3.76794000     -1.46783000     -1.02612000
 Ni      2.22380000      2.38083000      3.14228000
 Ni     -0.22453700      1.04646000      3.15786000
 Ni      3.20909000     -3.40260000      0.04637640
 Ni     -1.06849000     -3.44976000      2.07471000
 Ni     -2.80607000      3.46295000     -0.03598810
 Ni      1.64422000      2.89100000      0.49633500
 Ni     -2.36080000      2.62467000      2.61350000
 Ni     -2.62429000     -0.01169270      3.35467000
 Ni      0.45390700      1.59897000     -4.22150000
 Ni     -0.76503700      1.71818000      0.56519600
 Ni     -3.37737000     -1.85972000      1.50063000
 Ni     -0.42774800     -1.64732000      3.91785000
 Ni     -3.79351000      1.15787000     -1.84582000
 Ni      1.31674000     -2.38886000      2.05340000
  C      4.99765000     -3.16742000     -0.70312400
  O      6.00609000     -3.96960000     -0.77403400
  C      0.36936500     -3.05614000      5.44359000
  O      0.70047300     -3.33947000      6.64642000
  C     -5.84331000      0.85575200     -1.02017000
  O     -6.96183000      1.46140000     -1.03550000
  C      1.04264000      2.46261000      4.99354000
  O      1.53130000      3.05212000      6.03234000
  C     -3.75638000     -3.90427000     -0.76581000
  O     -4.32694000     -5.03353000     -0.97156000
  C     -1.47245000      3.59050000     -4.23193000
  O     -2.52214000      4.04236000     -4.83551000
  C     -1.54878000      5.04139000     -2.86149000
  O     -2.04734000      5.96653000     -3.60258000
  C     -5.16528000     -0.18067800      2.27662000
  O     -6.30862000     -0.59456200      2.71325000
  C     -3.79380000     -0.80412700     -4.54346000
  O     -4.64407000     -0.79238100     -5.48963000
  C      5.71784000      0.51587800      0.05520300
  O      6.88540000      0.11139200      0.41493800
  C     -0.67297200      6.92035000     -0.84813500
  O     -1.24588000      7.71576000     -1.68444000
  C     -2.03876000      0.72734500      5.30126000
  O     -2.36918000      0.26690700      6.45125000
  C      1.55241000      5.13298000      1.39208000
  O      2.25744000      6.19971000      1.69629000
  C      3.99352000      3.84335000      1.86351000
  O      4.74222000      4.75446000      1.36401000
  C     -1.35473000     -5.73147000      0.48602100
  O     -1.76844000     -6.89814000      0.19952300
  C      0.13677000      5.11996000     -3.10466000
  O      0.31540700      5.85604000     -4.14227000
  C     -5.14416000      1.20785000      1.79297000
  O     -6.12609000      2.02799000      1.85537000
  C      0.40260200     -3.95969000      4.34349000
  O      0.81688500     -5.16483000      4.47856000
  C      5.44238000      0.89532900     -1.39147000
  O      6.38639000      0.83533500     -2.26801000
  C      3.40927000      3.99833000      3.17167000
  O      3.67327000      4.96206000      3.98555000
  C     -2.61316000      5.05945000      2.51969000
  O     -3.52576000      5.40317000      3.37861000
  C      0.02092410      1.33004000     -6.14957000
  O      0.44969600      0.69581400     -7.22346000
  C     -0.38550000      3.05659000     -5.21130000
  O     -0.15378100      3.68824000     -6.32034000
  C     -4.98965000      1.38178000     -3.82402000
  O     -6.13416000      0.98537800     -4.26255000
  C      4.10935000     -3.73577000      2.65738000
  O      5.23080000     -3.92366000      3.22077000
  C      2.85469000     -2.99112000      3.63158000
  O      3.07557000     -3.77380000      4.62869000
  C      3.49304000     -4.59029000      1.58208000
  O      3.55475000     -5.81780000      1.96312000
  C     -2.82945000      5.17582000      0.95117300
  O     -3.22358000      6.39734000      0.81661600
  C     -1.97526000      2.27004000      4.97703000
  O     -2.54646000      3.22022000      5.63316000
  C      4.04422000      0.51436500      4.33111000
  O      4.84396000      0.50039500      5.31806000
  C     -0.33884200      1.93368000      5.49774000
  O     -0.24590900      1.70490000      6.75979000
  C      2.27073000     -5.21038000     -1.36186000
  O      2.74997000     -6.38131000     -1.68181000
  C     -2.57455000      5.00649000     -1.57708000
  O     -3.43192000      5.94978000     -1.71115000
  C     -1.13484000      5.45994000      2.67871000
  O     -1.08130000      6.73196000      2.85901000
  C      5.11493000     -1.79525000     -1.24422000
  O      6.26405000     -1.53118000     -1.77848000
  C      2.10008000     -0.23085200     -5.47836000
  O      2.56030000     -0.70930200     -6.56051000

