110
Energy = -12107.45438155 au
 Ni     -0.10972300     -3.50694000     -2.48517000
 Ni     -1.46719000     -0.18620200     -1.22877000
 Ni      0.42248900     -4.39382000      0.37062500
 Ni     -0.72529200      4.45986000     -0.39574600
 Ni     -1.23761000      2.46702000     -2.28204000
 Ni     -3.31920000      0.59571400      0.84397600
 Ni     -1.05080000     -0.90039800      1.25760000
 Ni      0.09159110      3.87631000      2.16066000
 Ni      0.25420100     -0.99957500     -3.06536000
 Ni      3.42803000     -0.48028800     -0.80915100
 Ni      0.73819500     -1.68122000     -0.57005400
 Ni      2.71443000     -2.58794000     -2.45049000
 Ni      3.55456000      2.11144000     -1.45946000
 Ni      2.06649000     -0.26964600      3.66948000
 Ni      1.51562000      0.27419500      1.14226000
 Ni      2.84725000      0.27267400     -3.31055000
 Ni      1.43319000      3.52954000     -2.25259000
 Ni     -2.41293000     -2.32277000     -3.24144000
 Ni      3.96063000     -1.04231000      1.89671000
 Ni     -1.82249000     -2.97727000     -0.48218700
 Ni      4.36225000      1.35846000      1.10443000
 Ni      1.00930000      0.94725900     -1.36052000
 Ni     -2.00852000      0.45160800     -3.73542000
 Ni     -3.85906000     -1.14175000     -1.06408000
 Ni      2.30400000      2.55942000      3.10432000
 Ni     -0.24172900      1.03346000      2.97008000
 Ni      3.07578000     -3.02558000     -0.08787900
 Ni     -1.17641000     -3.53013000      2.05315000
 Ni     -2.92260000      3.16035000     -0.18094000
 Ni      1.80519000      3.01782000      0.54001100
 Ni     -2.40640000      2.66406000      2.33604000
 Ni     -2.90247000     -0.43427000      3.41516000
 Ni      0.57120400      1.64192000     -3.86352000
 Ni     -0.74359600      1.71941000      0.45572800
 Ni     -3.45653000     -2.30421000      1.61189000
 Ni     -0.62579800     -1.56783000      3.71647000
 Ni     -3.84787000      1.40765000     -1.80072000
 Ni      1.22964000     -2.37751000      1.92978000
  C     -3.79659000     -4.24122000      0.11810100
  O     -3.98509000     -5.36107000     -0.49775400
  C     -1.37421000      2.74059000     -4.71998000
  O     -2.38292000      3.30850000     -5.27420000
  C      6.16655000      0.65561600      1.84445000
  O      7.37738000      0.53447600      1.43758000
  C      3.74867000      2.64226000     -4.50426000
  O      4.39267000      3.30950000     -5.41242000
  C     -0.88211300      4.64092000     -2.86099000
  O     -0.99832200      5.35554000     -3.91836000
  C      5.27543000      0.38287700     -1.69236000
  O      6.18340000     -0.10661500     -2.46388000
  C      3.13185000      4.35921000     -0.60466900
  O      3.79993000      5.47129000     -0.33118700
  C     -4.66913000     -3.95444000      1.22771000
  O     -5.68715000     -4.59903000      1.67629000
  C     -2.54629000      4.71420000      2.16068000
  O     -3.17262000      5.70668000      2.71877000
  C     -3.80993000     -0.87782200     -4.56177000
  O     -4.49012000     -0.45178900     -5.57267000
  C     -3.23017000      3.68656000     -2.45590000
  O     -3.97261000      4.16224000     -3.40830000
  C      1.47408000      2.17183000      5.13392000
  O      1.59839000      2.88124000      6.18794000
  C     -0.23581300      3.46489000     -5.64054000
  O     -0.56386100      4.22165000     -6.60404000
  C     -2.38895000     -4.37587000     -2.71497000
  O     -3.07883000     -5.42628000     -3.10621000
  C     -5.87863000      0.18905900     -0.97000200
  O     -6.96885000     -0.22760300     -0.42512600
  C      5.67318000      1.43959000     -0.63602200
  O      6.88963000      1.86230000     -0.54580100
  C     -0.65786000     -3.08522000     -4.58008000
  O     -0.55191100     -3.65337000     -5.76128000
  C     -1.42781000     -5.43568000      0.36453600
  O     -1.90250000     -6.64354000      0.20230600
  C      1.11231000      3.01414000     -5.36166000
  O      1.98871000      3.56737000     -6.12852000
  C      3.01314000      3.60095000     -3.57938000
  O      3.28767000      4.80088000     -3.96147000
  C     -4.22609000     -2.15390000     -4.02108000
  O     -5.28610000     -2.86782000     -4.16089000
  C     -5.33091000      0.60383600      1.75404000
  O     -6.30212000     -0.00298018      2.33626000
  C     -4.26209000     -0.04222940      5.25467000
  O     -4.86827000     -0.80531300      6.09924000
  C      3.08546000     -4.60708000     -2.04773000
  O      3.73701000     -5.57289000     -2.61012000
  C     -3.20483000     -2.52721000      3.95702000
  O     -3.95318000     -3.08636000      4.91300000
  C      4.34511000     -0.56817700      3.91738000
  O      5.34756000     -0.39214200      4.73996000
  C     -2.32907000      4.98607000     -2.23789000
  O     -2.78355000      6.15919000     -1.99949000
  C      2.04144000      4.20407000      2.47545000
  O      2.78742000      5.43784000      2.81737000
  C      4.71938000     -2.45973000     -2.05879000
  O      5.83996000     -2.82660000     -2.57786000
  C     -5.24752000      1.89929000      1.19377000
  O     -6.15476000      2.79647000      1.07168000
  C      1.13622000     -4.79220000      2.40602000
  O      1.67135000     -5.74494000      3.07766000
  C      4.64453000      1.98642000      3.10031000
  O      5.71063000      2.11373000      3.87016000
  C     -5.77689000      1.53175000     -1.42267000
  O     -6.64078000      2.49189000     -1.48667000
  C      3.89913000      1.19500000     -4.73315000
  O      4.62067000      0.66551000     -5.66052000
  C      5.21528000     -1.82925000      0.50738200
  O      6.55356000     -2.00485000      0.40252200
  C     -0.48914900      6.16435000      1.18844000
  O     -1.11434000      7.24328000      1.47335000
