110
Energy = -12015.88510107 au
 Ni      0.03449470     -3.48422000     -2.25242000
 Ni     -1.39021000     -0.26885500     -1.22498000
 Ni      0.65533400     -4.45370000      0.09911850
 Ni     -0.55424400      4.18206000     -0.10819500
 Ni     -1.29998000      2.41382000     -1.96987000
 Ni     -3.44450000      0.56992500      0.73387100
 Ni     -0.98112000     -0.91529300      1.30429000
 Ni      0.04348940      3.75344000      2.52604000
 Ni      0.39537500     -1.15546000     -3.40831000
 Ni      3.32221000     -0.54267500     -0.65068700
 Ni      0.78556100     -1.65117000     -0.59312700
 Ni      2.78503000     -2.28252000     -2.68307000
 Ni      3.30357000      2.10540000     -1.63003000
 Ni      1.77100000     -0.36882100      3.78447000
 Ni      1.46792000      0.26402800      1.18409000
 Ni      2.73677000      0.10169100     -3.48612000
 Ni      1.05168000      3.57996000     -2.18714000
 Ni     -2.05035000     -2.37067000     -3.27196000
 Ni      3.96510000     -1.30608000      1.89218000
 Ni     -1.74722000     -2.98057000     -0.37707100
 Ni      3.73032000      1.59896000      0.99361600
 Ni      1.00747000      0.90256100     -1.29834000
 Ni     -1.90822000      0.53098300     -3.72622000
 Ni     -3.85214000     -1.26318000     -0.95863500
 Ni      2.15201000      2.36538000      3.03269000
 Ni     -0.28372600      1.02208000      3.06914000
 Ni      2.84225000     -3.13130000      0.20539000
 Ni     -1.42045000     -3.57566000      2.07573000
 Ni     -3.02529000      3.19000000     -0.09982020
 Ni      1.78954000      3.06662000      0.46544500
 Ni     -2.33362000      2.71950000      2.82504000
 Ni     -2.68112000     -0.31517000      3.21227000
 Ni      0.52509300      1.53110000     -3.71094000
 Ni     -0.73760900      1.72659000      0.57867800
 Ni     -3.49147000     -2.11455000      1.32332000
 Ni     -0.90769500     -1.77497000      3.99804000
 Ni     -3.71743000      1.25993000     -1.69735000
 Ni      1.22296000     -2.36869000      1.97881000
  C     -1.94870000      3.01172000      4.59542000
  O     -2.67139000      2.99621000      5.66003000
  C      1.71414000      5.76781000      0.12998500
  O      2.91762000      5.91597000     -0.27977300
  C      0.65803500      6.73506000     -0.94298200
  O      1.48087000      7.71047000     -1.06990000
  C     -0.45805900     -0.38660700      5.86276000
  O     -0.84163600     -0.39982600      7.09175000
  C     -1.58755000     -2.62848000     -5.09824000
  O     -2.14778000     -3.18938000     -6.10850000
  C      4.63533000     -2.35560000     -2.66385000
  O      5.35873000     -2.92048000     -3.57830000
  C     -0.84701900      6.80543000     -0.78913300
  O     -1.85874000      7.61203000     -1.25941000
  C      2.66065000     -5.37129000     -1.68003000
  O      3.48966000     -5.83444000     -2.52472000
  C     -2.67079000      4.50461000     -1.90684000
  O     -3.34552000      5.36076000     -2.60582000
  C      4.34355000      3.22808000      4.29946000
  O      4.95726000      4.35035000      4.45274000
  C     -0.43309900      5.39736000     -3.05680000
  O     -1.14653000      6.43343000     -3.26537000
  C      0.43132100      4.77169000     -3.96552000
  O      0.51018500      5.08098000     -5.21046000
  C     -5.12886000      1.94182000     -0.30217500
  O     -6.45979000      2.08111000     -0.25375600
  C     -2.14080000     -5.26142000      0.85431300
  O     -2.15799000     -6.53896000      0.74365900
  C      0.83057200      5.67722000      1.40598000
  O      1.01829000      6.87897000      1.87327000
  C     -2.60932000      2.57874000     -4.35626000
  O     -3.08384000      3.12993000     -5.46242000
  C     -2.50129000     -4.42995000     -2.61499000
  O     -3.31998000     -5.30429000     -3.08066000
  C      5.67937000     -1.36678000      1.22946000
  O      6.81273000     -1.76581000      1.68376000
  C     -3.38123000     -4.37449000      0.60557700
  O     -4.46433000     -5.01789000      0.34159500
  C     -2.94839000     -2.30243000      4.72117000
  O     -3.92392000     -2.29886000      5.54136000
  C     -2.87542000      4.74286000      2.14066000
  O     -3.47337000      5.65633000      2.78013000
  C      5.44578000     -2.05307000     -1.43452000
  O      6.59019000     -2.57834000     -1.17126000
  C     -0.22151900     -2.03539000     -5.08931000
  O      0.40125100     -2.20234000     -6.20681000
  C      3.18849000      4.80531000      2.15666000
  O      3.46371000      6.06145000      2.11367000
  C      3.06511000     -3.83842000      2.32100000
  O      3.53874000     -4.90849000      3.04347000
  C     -5.18824000     -0.56542100      0.79309400
  O     -6.49379000     -0.26646700      1.07945000
  C      4.97621000     -0.50630500      3.70498000
  O      6.16188000     -0.67687500      4.16081000
  C      5.59826000     -0.73755200     -0.15304800
  O      6.52643000      0.01541700     -0.64272800
  C     -0.53996200      3.53187000      4.53757000
  O      0.01210660      3.91371000      5.64256000
  C      3.86637000      3.76413000      1.04579000
  O      4.81079000      4.46468000      0.52054900
  C     -2.19870000     -3.55950000      4.36862000
  O     -2.41721000     -4.65789000      5.00073000
  C      1.77727000     -5.90613000     -0.68648600
  O      1.80809000     -7.18399000     -0.49696600
  C      2.34905000     -1.46163000     -4.79790000
  O      2.71480000     -1.68191000     -5.99575000
  C      2.31510000      4.42232000      3.38657000
  O      2.50060000      5.32888000      4.26830000
  C      1.67387000      1.04806000      5.64756000
  O      1.57662000      0.88160400      6.91618000
  C      3.91234000      2.25617000     -3.86641000
  O      4.60760000      2.87932000     -4.65615000
