#B3LYP/6-31+G(d) OPT FREQ

110, Energy = -12126.10675339 au

0 1
 Ni      0.17495200     -3.52175000     -2.55968000
 Ni     -1.32668000     -0.31758400     -1.20758000
 Ni      0.45666300     -4.52709000      0.20348700
 Ni     -0.53450900      4.55104000     -0.47305500
 Ni     -1.10330000      2.23605000     -1.93890000
 Ni     -3.06000000      0.45685900      0.73618900
 Ni     -0.95794800     -1.00349000      1.32416000
 Ni      0.10178500      3.60892000      2.20788000
 Ni      0.38352000     -1.13127000     -3.44090000
 Ni      3.37442000     -0.55221300     -0.65455700
 Ni      0.79275900     -1.74165000     -0.54441300
 Ni      2.73046000     -2.26399000     -2.34848000
 Ni      3.59573000      1.79515000     -1.48161000
 Ni      2.07196000     -0.61883700      3.78745000
 Ni      1.47968000      0.14455100      1.20463000
 Ni      2.78693000      0.00000373     -3.42660000
 Ni      1.25138000      3.28512000     -2.10689000
 Ni     -2.01466000     -2.25554000     -2.96020000
 Ni      3.76655000     -1.41258000      1.83608000
 Ni     -1.68345000     -3.08121000     -0.47675000
 Ni      3.93495000      1.15993000      1.07593000
 Ni      1.04612000      0.78441800     -1.37733000
 Ni     -1.61576000      0.33347500     -3.82421000
 Ni     -3.67345000     -1.53997000     -1.04912000
 Ni      2.26102000      2.15988000      2.94059000
 Ni     -0.26653700      0.91063100      2.97088000
 Ni      3.03917000     -3.18506000      0.13474100
 Ni     -1.08421000     -3.75330000      2.06047000
 Ni     -2.78463000      3.22664000     -0.14744500
 Ni      1.64874000      2.75610000      0.42987500
 Ni     -2.46100000      2.50834000      2.38859000
 Ni     -2.89423000     -0.33301900      3.24831000
 Ni      0.77607800      1.41162000     -4.13621000
 Ni     -0.71305500      1.64467000      0.51806600
 Ni     -3.45053000     -2.30942000      1.51399000
 Ni     -0.36560700     -1.71770000      3.87722000
 Ni     -3.43976000      1.10874000     -1.80032000
 Ni      1.26584000     -2.57550000      2.13053000
  C      5.89794000     -2.07896000      1.88185000
  O      7.05831000     -2.32363000      2.37072000
  C      1.30006000      0.00991658     -5.93278000
  O      1.89023000      0.57159500     -6.92683000
  C      1.79717000     -5.76242000     -1.19066000
  O      2.14570000     -6.99719000     -1.21492000
  C     -4.11084000     -3.96230000      0.64422800
  O     -5.17799000     -4.62457000      0.37067300
  C     -3.48341000      4.55040000      2.03108000
  O     -3.96048000      5.56509000      2.64401000
  C      6.03502000      0.55863000      1.75854000
  O      7.23738000      0.15665800      1.57761000
  C     -3.46486000     -3.90609000     -2.20344000
  O     -4.04483000     -4.98744000     -2.57600000
  C     -0.38429000     -2.50911000     -5.08466000
  O     -0.52314800     -2.45011000     -6.35991000
  C      0.11801400     -3.79458000     -4.49462000
  O      0.40247300     -4.71297000     -5.33792000
  C      4.13373000     -3.72177000      2.44693000
  O      5.15757000     -4.36599000      2.90997000
  C      5.43231000      1.25637000     -1.65325000
  O      6.50230000      1.56388000     -2.30967000
  C      5.56043000     -2.43301000      0.52962700
  O      6.56406000     -2.63068000     -0.25512700
  C      2.72603000      2.52831000     -4.62632000
  O      3.20610000      3.08864000     -5.65716000
  C      4.29467000      1.64260000      3.90804000
  O      4.81970000      1.84266000      5.10098000
  C     -1.45733000      5.73431000     -1.74447000
  O     -1.19301000      6.86232000     -2.29095000
  C      2.31063000     -5.36286000      2.05759000
  O      2.73146000     -5.96847000      3.11211000
  C      1.96359000     -1.14424000     -5.09638000
  O      2.19567000     -1.97359000     -6.05903000
  C      5.71153000      1.50042000      2.86664000
  O      6.66373000      2.27183000      3.30004000
  C     -1.97462000     -5.11673000     -0.37690700
  O     -2.28992000     -6.18927000     -1.02129000
  C     -2.63178000      4.89260000     -1.87352000
  O     -3.51620000      5.25450000     -2.73115000
  C     -3.13551000     -5.14550000      0.64748400
  O     -3.29004000     -6.17690000      1.38980000
  C      3.54622000     -3.00055000      4.01398000
  O      3.63001000     -4.09969000      4.66585000
  C     -5.08735000     -0.22431000      2.69330000
  O     -6.18544000      0.05071460      3.27367000
  C      0.86542400     -3.84732000      4.06187000
  O      1.37756000     -4.94645000      4.51328000
  C      5.60920000      0.07877700     -0.75943900
  O      6.78685000     -0.43206400     -0.64554700
  C      4.83082000     -2.53854000     -2.24772000
  O      5.84719000     -3.31893000     -2.18779000
  C      1.34276000      5.72752000      0.12483200
  O      1.66853000      6.96061000      0.21102800
  C      3.76828000     -4.93094000      1.26061000
  O      4.38245000     -6.01679000      0.96614700
  C     -0.30391500      0.11120400     -5.68297000
  O     -0.59959500     -0.15850200     -6.90433000
  C     -3.52993000     -2.37880000      4.11539000
  O     -4.27632000     -2.82008000      5.06918000
  C      0.78796700     -2.87561000      5.20329000
  O      1.24408000     -3.13551000      6.37346000
  C      4.82389000     -1.22733000     -2.96121000
  O      5.90322000     -0.91701400     -3.59118000
  C      0.97101500     -6.21793000      1.72553000
  O      1.35599000     -7.43530000      1.53264000
  C      3.29175000     -1.77081000      4.82599000
  O      3.58982000     -1.93299000      6.07127000
  C     -0.15714100     -5.63697000      2.56294000
  O     -0.17887200     -6.41807000      3.58369000
  C      2.11773000      4.63409000      2.60561000
  O      2.64161000      5.75757000      2.84951000

