110
Energy = -12378.41926157 au
 Ni     -0.18706000     -3.68726000     -2.37447000
 Ni     -1.40368000     -0.28399600     -1.28775000
 Ni      0.48797400     -4.36097000      0.50141700
 Ni     -0.34981000      4.25901000     -0.19573800
 Ni     -1.31056000      2.42246000     -2.13106000
 Ni     -3.07461000      0.51781300      0.60990600
 Ni     -0.90335500     -0.94659700      1.36002000
 Ni     -0.18686100      3.70417000      2.63058000
 Ni      0.21223900     -1.04215000     -3.46557000
 Ni      3.12697000     -0.43312000     -0.64529700
 Ni      0.66091200     -1.69900000     -0.57095800
 Ni      2.29851000     -2.25558000     -2.61415000
 Ni      3.39730000      2.24815000     -1.91196000
 Ni      1.97555000     -0.20172400      3.91372000
 Ni      1.42017000      0.23630400      1.28305000
 Ni      2.70233000      0.28975600     -3.63636000
 Ni      1.22297000      3.67483000     -2.22247000
 Ni     -2.18661000     -2.42073000     -3.24103000
 Ni      3.82605000     -1.08999000      2.03542000
 Ni     -1.70270000     -3.03469000     -0.39833900
 Ni      3.82898000      1.43591000      1.16123000
 Ni      0.95745500      0.93353700     -1.45585000
 Ni     -2.20343000      0.26106100     -3.74469000
 Ni     -3.66227000     -1.53455000     -1.24843000
 Ni      2.10397000      2.40348000      3.42173000
 Ni     -0.15107400      1.13579000      3.52490000
 Ni      2.78461000     -2.94958000      0.10834700
 Ni     -1.25056000     -3.95390000      2.15769000
 Ni     -2.92543000      3.11554000      0.12450400
 Ni      1.73445000      2.83107000      0.48847400
 Ni     -2.62124000      2.72788000      2.55353000
 Ni     -2.49953000      0.06528360      3.27038000
 Ni      0.31264600      1.60703000     -4.24427000
 Ni     -0.71492400      1.68527000      0.62740000
 Ni     -3.19274000     -2.09702000      1.41697000
 Ni     -0.47647500     -1.88132000      3.80318000
 Ni     -3.98153000      0.97993800     -1.88061000
 Ni      1.33458000     -2.33818000      2.16736000
  C     -2.13895000      3.47018000     -3.50587000
  O     -3.19637000      4.17626000     -3.66553000
  C     -1.02286000      4.03052000     -4.51310000
  O     -1.49842000      4.89310000     -5.51153000
  C     -3.22342000      4.55204000      1.96793000
  O     -4.41863000      5.03875000      2.02201000
  C     -4.91609000     -0.10244600     -3.43369000
  O     -6.11936000     -0.54344800     -3.57717000
  C      2.81109000     -3.12287000      3.42704000
  O      3.37284000     -2.96253000      4.57305000
  C     -2.90802000     -4.38059000     -3.57678000
  O     -3.35020000     -4.74174000     -4.73381000
  C     -0.28630900      3.01218000     -5.31316000
  O     -0.17133800      3.14868000     -6.58560000
  C     -5.35916000      1.81387000     -0.70689400
  O     -6.65704000      1.84813000     -0.81890100
  C     -1.44326000     -5.71530000      1.17771000
  O     -1.44351000     -6.95210000      1.53378000
  C     -0.84518200      5.45869000      3.04736000
  O     -0.23661100      6.39638000      3.67801000
  C     -3.95506000     -0.02043250     -4.58162000
  O     -4.24045000     -0.15857200     -5.82996000
  C      0.76675100      0.27988200     -5.64082000
  O      0.30201400      0.09368890     -6.82406000
  C     -2.81511000     -4.97080000      0.88516100
  O     -3.92329000     -5.44237000      1.35987000
  C      4.42386000     -0.29622800      3.77613000
  O      5.51282000     -0.27500800      4.50844000
  C      1.34574000     -5.22527000      2.34576000
  O      1.65548000     -6.37999000      1.87744000
  C      1.21148000      1.20676000      4.94659000
  O      1.11421000      1.44886000      6.22016000
  C     -0.10346300      4.64476000     -3.30003000
  O     -0.28043100      5.91128000     -3.40996000
  C      2.48656000     -4.56734000      3.16619000
  O      2.62015000     -5.51424000      4.04537000
  C     -1.60516000     -5.00475000     -2.93164000
  O     -1.83326000     -6.23866000     -2.66528000
  C      5.42475000     -0.47419600      0.72050500
  O      6.67468000     -0.70906500      0.60079300
  C     -0.01793530     -3.80658000      4.36678000
  O      0.26101900     -4.15679000      5.57181000
  C     -0.90214700     -2.81734000     -4.78225000
  O     -1.07618000     -3.25639000     -6.01837000
  C     -2.25232000      5.57830000      2.52815000
  O     -2.75087000      6.78521000      2.67027000
  C      2.30029000      3.84662000      4.75725000
  O      2.16523000      3.90154000      6.03632000
  C     -1.99318000      1.64579000      5.15333000
  O     -2.27344000      1.02260000      6.24068000
  C      3.79332000      4.07780000     -2.64410000
  O      4.62194000      4.50374000     -3.55525000
  C      4.32738000      1.56735000     -3.85828000
  O      4.92483000      2.17994000     -4.86089000
  C     -2.53049000      3.16108000      4.65496000
  O     -3.28677000      4.06346000      5.17953000
  C     -3.92000000     -3.87481000     -2.28634000
  O     -5.07766000     -4.00159000     -2.82692000
  C     -0.90029400      2.96010000      4.83932000
  O     -0.19463400      3.62954000      5.68074000
  C      1.75701000     -1.90637000     -4.77602000
  O      1.62867000     -2.73074000     -5.75768000
  C      2.17133000     -0.51783200     -5.52323000
  O      3.11635000     -0.45314400     -6.40666000
  C      0.00954237     -5.04070000      3.42873000
  O     -0.22078700     -6.29950000      3.66483000
  C      1.59718000      5.23995000     -0.37181600
  O      2.12573000      6.45010000     -0.16606600
  C      3.65050000      3.53953000      2.37306000
  O      4.28620000      4.63264000      2.72864000
  C     -3.61266000     -4.45662000     -0.87404100
  O     -4.23144000     -5.58373000     -0.90913500
