#B3LYP/6-31+G(d) OPT FREQ

110, Energy = -10107.13469682 au

0 1
 Ni      0.07970300     -3.47229000     -2.23516000
 Ni     -1.36619000     -0.22822100     -1.15914000
 Ni      0.48027900     -4.18260000      0.21864200
 Ni     -0.47805800      4.16699000     -0.22241100
 Ni     -1.13894000      2.23837000     -1.90543000
 Ni     -3.02136000      0.49276600      0.65391700
 Ni     -0.94632300     -0.86182100      1.28509000
 Ni     -0.08471770      3.47762000      2.24266000
 Ni      0.29257400     -0.95834600     -2.98586000
 Ni      3.03692000     -0.49359800     -0.65193500
 Ni      0.71352300     -1.60846000     -0.53123800
 Ni      2.40354000     -2.32300000     -2.37685000
 Ni      3.28553000      1.98489000     -1.42646000
 Ni      1.81813000     -0.41753000      3.63461000
 Ni      1.36638000      0.22832700      1.15860000
 Ni      2.63013000      0.15574800     -3.13926000
 Ni      1.18339000      3.37419000     -2.04486000
 Ni     -2.03206000     -2.07243000     -2.88710000
 Ni      3.49548000     -1.14251000      1.80410000
 Ni     -1.58878000     -2.69283000     -0.40778300
 Ni      3.71705000      1.33783000      1.05058000
 Ni      0.94608500      0.86148700     -1.28447000
 Ni     -1.81540000      0.40759200     -3.65231000
 Ni     -3.71184000     -1.33935000     -1.05347000
 Ni      2.03681000      2.07540000      2.88294000
 Ni     -0.29357900      0.96139900      2.97442000
 Ni      2.81463000     -2.98685000      0.09610610
 Ni     -1.18011000     -3.37363000      2.05863000
 Ni     -2.80450000      2.99360000     -0.08578950
 Ni      1.59227000      2.70034000      0.41012400
 Ni     -2.40504000      2.33085000      2.38828000
 Ni     -2.63723000     -0.16350200      3.14427000
 Ni      0.52640700      1.51124000     -3.76369000
 Ni     -0.71346200      1.60844000      0.53182500
 Ni     -3.28872000     -1.99936000      1.43226000
 Ni     -0.52951500     -1.53335000      3.76115000
 Ni     -3.48856000      1.13248000     -1.81227000
 Ni      1.14117000     -2.24397000      1.91098000
  C     -2.55887000     -4.77126000     -2.43777000
  O     -3.22149000     -5.86320000     -2.64119000
  C     -1.86815000     -5.74439000      1.23711000
  O     -2.59043000     -6.88408000      1.17743000
  C      2.82268000      5.27196000     -1.76418000
  O      3.53560000      6.30287000     -1.65381000
  C     -1.41182000      5.46910000      2.80783000
  O     -1.88393000      6.67278000      3.29906000
  C      5.52752000     -2.37054000      0.29637900
  O      6.77573000     -2.67181000      0.05976170
  C     -2.02685000      4.75289000     -2.64985000
  O     -2.49256000      5.69752000     -3.40188000
  C      5.66655000     -0.53976200     -0.27554600
  O      6.99820000     -0.67907300     -0.57753000
  C      5.72637000      1.32200000     -1.57584000
  O      6.97160000      1.15627000     -1.86657000
  C      1.15182000      6.16109000     -1.18794000
  O      1.80358000      7.37512000     -1.06537000
  C      1.11755000      5.97267000      0.90414300
  O      1.75750000      7.06753000      1.07732000
  C      1.68393000     -5.56419000     -2.34319000
  O      2.19624000     -6.63956000     -2.82929000
  C     -5.16968000     -3.74906000      1.25229000
  O     -5.89703000     -4.79416000      1.13702000
  C      1.43554000     -3.75245000      4.11071000
  O      1.89949000     -4.63742000      4.97838000
  C     -3.06785000     -1.39762000      5.46060000
  O     -3.72313000     -1.99837000      6.46879000
  C      3.72975000      3.96350000      3.01049000
  O      4.40985000      5.01780000      3.25764000
  C     -2.90242000      5.22167000      1.65396000
  O     -3.51358000      6.32781000      1.98848000
  C     -0.95786900     -0.44229900     -5.87837000
  O     -0.92916500     -0.78339600     -7.17850000
  C      4.46367000      3.22793000     -3.24370000
  O      5.14894000      3.83597000     -4.14645000
  C     -0.48808500     -4.23459000      4.68497000
  O     -0.08062330     -5.15984000      5.49651000
  C     -4.19389000      0.25841400     -4.68301000
  O     -5.16158000      0.09273080     -5.52066000
  C     -3.51923000     -4.62702000      0.66143400
  O     -4.22318000     -5.81236000      0.47227200
  C      3.16662000     -2.79550000      4.09881000
  O      3.75461000     -3.70742000      4.94325000
  C     -2.18696000      3.43623000      4.67767000
  O     -2.38512000      3.83009000      5.86878000
  C     -2.57949000     -3.18737000      4.61048000
  O     -3.20707000     -3.85764000      5.59877000
  C     -0.24466700      3.10415000      4.95586000
  O     -0.28784700      3.49001000      6.18647000
  C     -0.35203000     -2.27166000     -5.27793000
  O     -0.21149000     -2.70516000     -6.48130000
  C     -4.78837000     -0.95535500      4.52685000
  O     -5.51551000     -1.56872000      5.41897000
  C      0.74586100     -5.17642000      2.89333000
  O      1.17504000     -6.16060000      3.69444000
  C     -2.45808000      3.33333000     -3.99074000
  O     -2.95091000      4.18318000     -4.82949000
  C      2.70213000     -4.41354000      2.59302000
  O      3.23432000     -5.34455000      3.38792000
  C      1.64198000     -6.20422000     -0.51584800
  O      2.20022000     -7.38898000     -0.82852800
  C     -5.87957000      1.58725000     -1.24435000
  O     -7.12449000      1.79649000     -0.99632000
  C      1.04664000     -0.37064300     -5.73816000
  O      1.22339000     -0.74675900     -6.95816000
  C     -3.95596000     -3.62238000      3.31004000
  O     -4.71839000     -4.26997000      4.19234000
  C      2.92982000      4.74927000      1.29249000
  O      3.59716000      5.83271000      1.41381000
  C     -0.61239100     -6.35040000     -0.10943100
  O     -1.26163000     -7.50180000     -0.31927100

