#B3LYP/6-31+G(d) OPT FREQ

110, Energy = -11936.59443793 au

0 1
 Ni      0.05274280     -3.54032000     -2.15770000
 Ni     -1.44583000     -0.23095400     -1.18125000
 Ni      0.67933200     -4.47456000      0.29038900
 Ni     -0.37017600      4.27758000     -0.25751000
 Ni     -1.21972000      2.30827000     -2.06349000
 Ni     -3.25223000      0.54939600      0.65768900
 Ni     -0.96185500     -0.87266400      1.30182000
 Ni     -0.02639880      3.53343000      2.45024000
 Ni      0.27523500     -0.91614000     -2.96816000
 Ni      3.31822000     -0.49197700     -0.73417000
 Ni      0.75394900     -1.67040000     -0.46613700
 Ni      2.58072000     -2.28902000     -2.34303000
 Ni      3.55624000      2.06311000     -1.66944000
 Ni      1.77411000     -0.46656000      3.77577000
 Ni      1.42416000      0.24174900      1.21500000
 Ni      2.72251000      0.25890500     -3.30850000
 Ni      1.36726000      3.50849000     -2.01749000
 Ni     -2.25521000     -2.06744000     -2.97908000
 Ni      3.48946000     -1.36824000      2.03394000
 Ni     -1.68069000     -2.95085000     -0.44465300
 Ni      3.74273000      1.52536000      1.12539000
 Ni      1.01310000      0.92439400     -1.29863000
 Ni     -2.02560000      0.33472400     -3.82207000
 Ni     -3.90483000     -1.26529000     -1.24089000
 Ni      2.09891000      2.38613000      3.17981000
 Ni     -0.26592200      0.99344300      3.10797000
 Ni      2.89475000     -3.22896000      0.28417400
 Ni     -1.15702000     -3.34050000      2.03850000
 Ni     -2.84685000      3.15228000      0.04204780
 Ni      1.75552000      2.97023000      0.53650700
 Ni     -2.45379000      2.52175000      2.32157000
 Ni     -2.69742000     -0.14733000      3.18773000
 Ni      0.40425600      1.80952000     -3.85269000
 Ni     -0.71101500      1.65955000      0.54204800
 Ni     -3.36900000     -2.11210000      1.35900000
 Ni     -0.50670700     -1.42904000      3.88900000
 Ni     -3.78121000      1.11595000     -1.93601000
 Ni      1.29147000     -2.43558000      2.17006000
  C     -5.94173000     -0.28288300     -2.29908000
  O     -7.14642000     -0.02192410     -2.62691000
  C      3.70043000     -2.82362000      3.53639000
  O      4.64940000     -3.58422000      3.96628000
  C      1.84306000      5.41772000     -0.82475000
  O      2.54085000      6.50281000     -0.88461500
  C     -5.32062000     -0.66811900     -3.63725000
  O     -6.07104000     -1.10496000     -4.62736000
  C     -2.23164000      5.27672000      2.29464000
  O     -2.06700000      6.44349000      2.77041000
  C      3.50227000      1.29508000     -5.02338000
  O      3.80468000      1.42089000     -6.26258000
  C     -3.81932000     -1.70039000      4.65755000
  O     -4.54356000     -1.92260000      5.70021000
  C      4.84251000     -1.68693000     -2.17645000
  O      6.05374000     -1.95415000     -2.42172000
  C      0.19217000      0.18416500      5.56239000
  O      0.10532700      0.51889700      6.81096000
  C      2.94478000      4.55235000      1.89835000
  O      3.07212000      5.75967000      1.38808000
  C     -3.33134000     -0.89283900     -5.45049000
  O     -4.24497000     -1.66400000     -5.93158000
  C      3.28396000     -4.55485000      1.71479000
  O      4.16898000     -5.43322000      2.06829000
  C      2.07938000     -5.17672000      2.47071000
  O      1.89080000     -5.44529000      3.68807000
  C     -0.18685300      3.56165000     -4.93437000
  O      0.07736640      4.39402000     -5.87563000
  C     -3.00542000      0.29822500     -6.09392000
  O     -3.48219000      0.58167400     -7.25811000
  C     -1.56633000      5.60651000     -1.89581000
  O     -1.80613000      6.74970000     -2.44187000
  C     -2.08104000     -5.20797000     -1.23695000
  O     -2.22514000     -6.26885000     -1.94683000
  C     -5.27210000      1.30824000      1.69801000
  O     -6.10961000      1.71416000      2.58651000
  C     -4.81597000     -3.93159000      2.02824000
  O     -5.42296000     -4.99263000      1.62231000
  C     -3.45111000      4.78164000      1.67829000
  O     -4.48129000      5.54949000      1.76818000
  C      1.29387000     -6.02677000      1.48568000
  O      1.80029000     -7.17898000      1.72882000
  C      4.43567000      2.23884000     -4.35569000
  O      5.66278000      2.28903000     -4.69427000
  C     -5.77592000      2.52360000     -1.88817000
  O     -7.02031000      2.46683000     -1.56079000
  C      0.53788300      3.27583000      4.87367000
  O     -0.09576020      3.95391000      5.76522000
  C      2.36087000     -2.98271000      4.17899000
  O      2.21998000     -3.74624000      5.20312000
  C      4.14267000      3.59126000      2.21962000
  O      5.09545000      4.29269000      2.70712000
  C     -1.40695000      3.52280000     -4.17174000
  O     -2.39771000      4.22879000     -4.59498000
  C      2.35359000      4.65113000      3.34106000
  O      2.94003000      5.54526000      4.05688000
  C     -2.80266000     -4.97150000     -0.05300720
  O     -3.65069000     -5.80793000      0.42854500
  C     -5.63290000      0.79797200      0.44559800
  O     -6.83572000      0.65700300      0.01790180
  C      5.40406000      0.72798800     -1.24455000
  O      6.62579000      0.59245400     -1.63988000
  C      1.61696000     -5.84912000     -1.25446000
  O      2.04321000     -7.04806000     -1.27414000
  C      1.71144000      2.53622000      5.26947000
  O      2.14706000      2.38556000      6.46739000
  C      3.89752000      3.23618000     -3.33009000
  O      4.40024000      4.32738000     -3.79982000
  C     -4.66806000      0.84528700     -4.00462000
  O     -5.52523000      1.29662000     -4.85565000
  C     -4.41341000     -2.33839000     -3.55773000
  O     -5.05074000     -3.23454000     -4.31672000

