#B3LYP/6-31+G(d) OPT FREQ

110, Energy = -11894.51296908 au

0 1
 Ni     -0.11748500     -3.68245000     -2.42072000
 Ni     -1.38644000     -0.21645100     -1.20192000
 Ni      0.37691300     -4.43099000      0.11289700
 Ni     -0.41394700      4.50911000     -0.35388900
 Ni     -1.27980000      2.48460000     -2.11542000
 Ni     -3.36023000      0.60136500      0.75256400
 Ni     -1.01251000     -0.86623000      1.28943000
 Ni      0.08378690      3.63647000      2.15276000
 Ni      0.32847500     -1.06107000     -3.33540000
 Ni      3.24714000     -0.47984300     -0.70647000
 Ni      0.71348100     -1.68174000     -0.60399000
 Ni      2.33886000     -2.40377000     -2.67057000
 Ni      3.52057000      2.07543000     -1.68276000
 Ni      1.78797000     -0.31969800      3.74029000
 Ni      1.39347000      0.27211000      1.17684000
 Ni      2.75122000      0.36986500     -3.25758000
 Ni      1.18096000      3.38585000     -2.05818000
 Ni     -2.10864000     -2.04346000     -3.03340000
 Ni      3.61186000     -1.12992000      1.72982000
 Ni     -1.72610000     -2.92564000     -0.45961100
 Ni      3.80117000      1.53637000      1.16583000
 Ni      0.97066600      0.88618500     -1.33184000
 Ni     -1.86811000      0.24888200     -3.89398000
 Ni     -3.69775000     -1.36919000     -1.06380000
 Ni      2.26575000      2.21862000      2.87180000
 Ni     -0.35767400      1.05609000      3.13323000
 Ni      2.97653000     -3.00790000      0.11160900
 Ni     -1.17787000     -3.52881000      2.02574000
 Ni     -2.93193000      3.16249000     -0.01822800
 Ni      1.77124000      2.93961000      0.41238000
 Ni     -2.55095000      2.41825000      2.40160000
 Ni     -2.92742000     -0.06996560      3.20124000
 Ni      0.42696700      1.76938000     -3.81035000
 Ni     -0.74905300      1.68885000      0.51170200
 Ni     -3.48019000     -1.81288000      1.47262000
 Ni     -0.53546200     -1.44062000      3.82301000
 Ni     -3.48336000      1.29592000     -1.94071000
 Ni      1.13166000     -2.28653000      1.89060000
  C     -3.27227000     -4.24373000     -1.38887000
  O     -4.30259000     -4.99139000     -1.26468000
  C      1.20624000     -2.12700000     -5.04822000
  O      0.94252500     -2.12799000     -6.31710000
  C      5.48483000      0.77997100     -1.20081000
  O      6.69045000      0.69745400     -1.60685000
  C     -2.51642000      4.91033000     -2.15162000
  O     -3.29432000      5.47242000     -3.00993000
  C     -1.90544000     -5.40975000      0.15460900
  O     -2.62015000     -6.45159000      0.48345400
  C      2.76175000      4.79077000      2.38574000
  O      3.42888000      5.81422000      2.90858000
  C     -4.84389000      3.13242000      1.59855000
  O     -5.82731000      3.91377000      1.91105000
  C      4.82041000      1.91691000      3.41566000
  O      5.71554000      1.61345000      4.27948000
  C      3.95941000      1.97522000     -4.24170000
  O      4.51139000      2.04136000     -5.40285000
  C     -2.27737000     -5.39944000     -1.31401000
  O     -2.32183000     -6.31608000     -2.10553000
  C      1.28317000     -6.24505000     -0.76530100
  O      2.15942000     -7.14951000     -1.05023000
  C      3.21459000     -4.92496000      1.58578000
  O      4.01581000     -5.63636000      2.30133000
  C     -1.31660000      3.61763000     -4.23735000
  O     -2.19195000      4.38692000     -4.77339000
  C     -0.78472700     -5.39835000     -3.71447000
  O     -1.33292000     -6.51056000     -4.02152000
  C     -5.41771000     -0.78051500      1.71692000
  O     -6.62761000     -0.77754100      1.28249000
  C     -4.01712000     -0.87257000     -4.37312000
  O     -4.89895000     -1.00015000     -5.26910000
  C      5.31879000     -1.80648000      0.10585400
  O      6.57902000     -1.95384000     -0.06847310
  C     -3.61291000      3.19034000     -3.11234000
  O     -4.33610000      3.64839000     -4.09334000
  C     -5.25816000      1.74336000      1.39575000
  O     -6.50801000      1.53027000      1.57290000
  C     -0.09082210     -6.49101000     -0.77166500
  O     -0.82135200     -7.51349000     -0.99119900
  C      0.03900690      3.74064000     -4.76643000
  O      0.19850600      4.61604000     -5.69042000
  C     -1.48792000      5.73449000     -1.59737000
  O     -1.50323000      6.97052000     -1.97498000
  C     -1.89661000      1.93172000      4.89016000
  O     -1.95641000      2.37910000      6.09697000
  C      2.29711000     -2.96931000     -4.65858000
  O      2.87367000     -3.74101000     -5.51445000
  C      3.52858000      4.13041000      1.20598000
  O      4.37915000      4.99896000      0.79324900
  C      0.50811700      0.03893430      5.76762000
  O      0.57232300      0.41630900      6.99288000
  C      0.39091600     -5.04666000      3.05070000
  O      0.54842500     -5.91899000      3.98670000
  C      1.50879000      5.55851000      1.62642000
  O      1.40698000      6.66577000      2.23547000
  C     -5.05068000     -0.25838800      3.06115000
  O     -6.02453000      0.02129500      3.86689000
  C      1.38435000      5.58422000      0.06648170
  O      2.04851000      6.60926000     -0.33320000
  C     -3.04528000      5.20256000      1.15844000
  O     -3.82574000      6.20526000      1.35503000
  C     -0.05219300     -4.46077000     -4.42643000
  O      0.28784800     -4.49245000     -5.69544000
  C      2.70095000      4.39757000      4.25554000
  O      3.42707000      4.98039000      5.18537000
  C     -1.04077000     -1.14397000     -5.37711000
  O     -1.16931000     -1.37491000     -6.70087000
  C      4.72859000      3.27927000      2.90365000
  O      5.31960000      4.37499000      3.14729000
  C      4.13931000      3.16595000     -3.40610000
  O      4.64926000      4.25738000     -3.84477000

