#B3LYP/6-31+G(d) OPT FREQ

110, Energy = -12284.35546682 au

0 1
 Ni      0.04417320     -3.83966000     -2.69442000
 Ni     -1.41773000     -0.36129900     -1.16783000
 Ni      0.31005600     -4.60346000      0.34841700
 Ni     -0.27896100      4.53920000     -0.05493470
 Ni     -1.06883000      2.31368000     -1.93405000
 Ni     -3.34723000      0.41031000      0.82979100
 Ni     -1.04200000     -0.98189400      1.29464000
 Ni     -0.35022200      3.76072000      2.35794000
 Ni      0.41985900     -1.18240000     -3.35392000
 Ni      3.21706000     -0.50042800     -0.72018600
 Ni      0.73093300     -1.77381000     -0.60750500
 Ni      2.64805000     -2.62965000     -2.43313000
 Ni      3.34247000      2.06497000     -1.58464000
 Ni      1.81937000     -0.30313900      3.75550000
 Ni      1.40825000      0.22210700      1.13401000
 Ni      2.68724000      0.20473800     -3.40439000
 Ni      1.39823000      3.62534000     -2.06649000
 Ni     -2.04975000     -2.45806000     -2.88917000
 Ni      3.48167000     -1.22023000      1.74569000
 Ni     -1.70500000     -2.95726000     -0.37988700
 Ni      4.21213000      1.22350000      1.32846000
 Ni      0.97731800      0.85341000     -1.38616000
 Ni     -1.71062000      0.46399400     -3.67599000
 Ni     -4.04400000     -1.48594000     -0.92292900
 Ni      2.30802000      2.07556000      2.84097000
 Ni     -0.38022800      0.98767100      2.95004000
 Ni      2.81061000     -3.39175000      0.06539260
 Ni     -1.21930000     -3.66953000      2.13259000
 Ni     -2.91446000      3.05749000      0.08475840
 Ni      1.73249000      2.86234000      0.50472700
 Ni     -2.74701000      2.59553000      2.50384000
 Ni     -2.98397000     -0.48174100      3.29196000
 Ni      0.48075800      1.65045000     -4.20493000
 Ni     -0.75506600      1.68921000      0.55827600
 Ni     -3.55832000     -2.14866000      1.43086000
 Ni     -0.77571900     -1.66193000      3.76016000
 Ni     -3.49804000      1.04450000     -1.69968000
 Ni      1.20938000     -2.55578000      1.94021000
  C     -2.64023000     -2.48482000      4.79958000
  O     -2.80899000     -3.56485000      5.48276000
  C     -5.24333000     -0.54141500      1.51115000
  O     -6.14593000     -0.29428800      2.39941000
  C      1.22434000      0.11054300      5.94616000
  O      1.66759000      0.73672400      6.98329000
  C      0.59825900     -7.15122000      0.65285000
  O     -0.07080740     -8.24935000      0.56970000
  C     -3.74863000     -1.53920000      4.71077000
  O     -4.88699000     -1.45050000      5.30946000
  C      1.39666000      5.50826000     -0.42642500
  O      1.52489000      6.79668000     -0.44727100
  C      4.33846000      1.44733000      3.89574000
  O      4.71512000      1.42743000      5.12604000
  C      3.02503000      4.34535000      1.50053000
  O      3.67707000      5.05675000      2.34677000
  C     -2.09562000     -5.09736000     -2.42762000
  O     -2.64620000     -5.98854000     -3.17465000
  C      3.32253000     -4.61478000     -1.68443000
  O      4.51993000     -5.11839000     -1.70050000
  C      5.33194000      1.29940000      2.84300000
  O      6.61962000      1.20355000      2.89853000
  C     -3.13212000      4.45766000      2.49002000
  O     -3.76751000      5.40782000      3.11491000
  C     -1.71860000     -5.56200000      1.97440000
  O     -2.44778000     -6.50538000      2.45600000
  C     -4.56532000     -3.65747000     -0.80538100
  O     -5.83646000     -3.84227000     -0.78453200
  C      2.28095000     -5.49318000     -2.41701000
  O      2.65114000     -6.62263000     -2.89673000
  C      1.02107000      0.15418500     -5.43505000
  O      1.05894000      0.00189059     -6.76106000
  C     -3.16071000     -5.14764000     -0.00917472
  O     -3.84362000     -6.04937000     -0.58969300
  C     -4.67322000      2.67428000      1.67405000
  O     -5.88761000      3.09034000      2.01123000
  C     -1.82691000     -5.82524000      0.45844500
  O     -1.83413000     -6.96748000     -0.17170700
  C      2.64575000     -4.32597000      2.16235000
  O      3.60166000     -4.80486000      2.87668000
  C      2.92591000      5.07035000      0.07025320
  O      4.00064000      5.59544000     -0.47789100
  C     -5.61359000     -0.60527100     -0.00250463
  O     -6.84193000     -0.34379600     -0.29996800
  C     -1.13480000      5.98014000      1.28706000
  O     -1.83667000      7.01771000      0.97737600
  C     -0.87759400      5.62263000      2.68037000
  O     -1.11943000      6.25097000      3.77971000
  C     -0.60357500     -3.37920000     -4.65073000
  O     -1.09859000     -4.04609000     -5.63859000
  C     -4.16543000     -4.09763000      0.78538600
  O     -4.80585000     -4.74953000      1.67997000
  C     -0.92399900      2.72746000     -4.91430000
  O     -1.08281000      3.67447000     -5.79357000
  C     -0.74672500     -5.82167000     -2.03505000
  O     -0.58184400     -7.07378000     -1.85413000
  C     -3.56005000     -3.97768000     -2.11228000
  O     -4.41959000     -4.37564000     -2.98515000
  C      0.75168000     -2.62622000     -4.75980000
  O      1.51914000     -2.68888000     -5.79520000
  C      5.40953000      0.26952300      0.04786690
  O      6.70493000      0.15233400     -0.19733500
  C      1.23930000     -4.97044000      2.32201000
  O      1.16285000     -5.96386000      3.13471000
  C      3.41677000      1.53086000     -4.95976000
  O      4.45976000      1.75156000     -5.64772000
  C      0.74647300     -5.59740000     -2.84997000
  O      0.48126700     -6.33885000     -3.85203000
  C      3.04378000      3.55633000     -3.37832000
  O      3.68776000      4.21293000     -4.31215000
  C      4.83854000     -2.39441000     -2.51140000
  O      5.77510000     -2.98512000     -3.16195000

