110
Energy = -12033.70269734 au
 Ni      0.21005700     -3.74513000     -2.16503000
 Ni     -1.38720000     -0.20396700     -1.15151000
 Ni      0.54562300     -4.58772000      0.29893300
 Ni     -0.37848900      4.75597000     -0.19977400
 Ni     -1.40314000      2.62108000     -1.97858000
 Ni     -3.21835000      0.65933500      0.67731700
 Ni     -1.00224000     -0.93837000      1.35077000
 Ni     -0.12622600      3.75019000      2.09315000
 Ni      0.32774100     -1.07720000     -3.18655000
 Ni      3.13433000     -0.55997900     -0.66044600
 Ni      0.70726200     -1.71735000     -0.52925200
 Ni      2.57067000     -2.53912000     -2.39886000
 Ni      3.42130000      1.88629000     -1.44160000
 Ni      2.07378000     -0.59900300      4.00853000
 Ni      1.43068000      0.22210600      1.23627000
 Ni      2.61401000      0.01277800     -3.43924000
 Ni      1.03592000      3.79482000     -2.07134000
 Ni     -2.07484000     -2.19572000     -2.94023000
 Ni      3.75803000     -1.07319000      2.21132000
 Ni     -1.69486000     -2.95420000     -0.37726900
 Ni      3.90406000      1.28271000      0.98011600
 Ni      0.95407100      0.91694500     -1.32506000
 Ni     -1.83861000      0.42020400     -3.57384000
 Ni     -3.67600000     -1.32849000     -1.01460000
 Ni      2.22598000      2.30634000      2.87267000
 Ni     -0.28897500      0.89948600      3.13032000
 Ni      2.77681000     -3.24775000      0.18713500
 Ni     -0.93540400     -3.68292000      2.14291000
 Ni     -3.12340000      3.33141000      0.04683320
 Ni      1.67488000      3.04888000      0.39005700
 Ni     -2.54106000      2.60988000      2.33337000
 Ni     -3.07251000     -0.33166400      3.23267000
 Ni      0.53488200      1.39029000     -3.89061000
 Ni     -0.75077600      1.72748000      0.52195800
 Ni     -3.34038000     -2.12787000      1.59557000
 Ni     -0.35128900     -1.55290000      4.02461000
 Ni     -3.83289000      1.49624000     -1.83171000
 Ni      1.25627000     -2.43463000      2.04440000
  C     -1.21405000     -5.88619000     -0.76321200
  O     -1.11844000     -7.05250000     -1.26095000
  C     -1.39155000     -5.60348000      0.77045400
  O     -2.19075000     -6.54006000      1.15683000
  C      2.36602000      4.71207000      3.40219000
  O      2.16040000      5.93899000      3.69743000
  C     -3.73447000      2.95854000     -3.08640000
  O     -4.48943000      3.65124000     -3.90021000
  C     -3.91903000     -2.10464000      3.90971000
  O     -4.55619000     -2.66916000      4.86165000
  C      6.02247000     -1.00840000      2.36478000
  O      6.82462000     -0.81514300      3.35187000
  C     -5.96978000      1.53575000     -2.28908000
  O     -7.05717000      1.76156000     -1.65179000
  C     -3.93105000     -2.03247000     -4.41947000
  O     -4.70878000     -2.71423000     -5.19161000
  C      0.92864900      5.83319000      1.12255000
  O      0.97270900      7.08530000      1.42213000
  C      1.44730000      5.70483000     -1.40471000
  O      2.23798000      6.74718000     -1.33304000
  C     -3.45617000     -4.37323000     -0.31812700
  O     -4.54660000     -4.90697000      0.09164140
  C      2.53124000     -2.57603000      4.22699000
  O      3.65241000     -2.93487000      4.77008000
  C      3.52089000      4.01293000      3.01836000
  O      4.72304000      4.46791000      2.91941000
  C      3.14396000      0.43719300     -5.59751000
  O      3.16669000     -0.27255900     -6.67157000
  C     -0.00061140     -0.18485300      5.50225000
  O     -0.29156800      0.00074887      6.77911000
  C      2.11456000     -5.76326000     -0.75903100
  O      2.87908000     -6.71793000     -0.32124200
  C      1.33365000     -3.52870000      4.60508000
  O      1.36597000     -4.03617000      5.77332000
  C      5.37080000      0.93412700     -0.61525500
  O      6.67220000      0.84052800     -0.83395900
  C     -5.39129000      1.27224000      2.24393000
  O     -6.46518000      1.80469000      2.67203000
  C      3.98631000      0.21517700      4.16448000
  O      4.89959000      0.29479100      5.11959000
  C     -2.01851000      4.57548000     -2.54279000
  O     -3.04311000      5.29792000     -2.84037000
  C      2.02155000     -5.12122000     -2.36834000
  O      2.79114000     -5.63314000     -3.27309000
  C      1.05540000     -6.26937000     -1.83569000
  O      0.80239300     -7.41683000     -2.30680000
  C      0.61700800     -0.55926800     -5.20974000
  O      0.67913300     -1.04829000     -6.45011000
  C      2.55742000     -4.60331000      1.85652000
  O      3.22612000     -5.46491000      2.59556000
  C     -4.93387000      0.07285290      3.01978000
  O     -5.82093000     -0.47739300      3.78951000
  C      2.17528000      5.02317000      0.84366300
  O      3.27454000      5.66445000      0.87796700
  C     -2.58209000     -5.14724000     -1.27579000
  O     -2.93212000     -5.84097000     -2.30883000
  C     -4.90898000      2.01255000      0.87514700
  O     -6.01336000      2.48266000      0.45104700
  C      0.34575500     -4.24991000      3.58872000
  O      0.37351500     -5.46904000      3.99015000
  C     -1.57060000      6.31080000      0.30943700
  O     -2.04931000      7.10006000      1.21885000
  C     -3.98913000      5.30579000     -0.56282000
  O     -4.41797000      6.32678000      0.08974150
  C     -0.61005500      4.86816000     -2.98411000
  O     -0.36488200      5.77714000     -3.86541000
  C     -1.21913000      6.54553000     -1.03460000
  O     -1.26246000      7.37151000     -2.00301000
  C     -2.63987000      4.63892000      2.12569000
  O     -3.30803000      5.64841000      2.69515000
  C      4.81070000     -2.74392000     -2.31712000
  O      5.80484000     -2.95103000     -3.10573000
