110
Energy = -11851.22006470 au
 Ni     -0.02115940     -3.67440000     -2.50128000
 Ni     -1.47316000     -0.21614300     -1.22687000
 Ni      0.61451800     -4.10710000      0.30429900
 Ni     -0.48110500      4.29747000     -0.53184500
 Ni     -1.16552000      2.35911000     -1.98449000
 Ni     -3.29262000      0.50119200      0.66267600
 Ni     -0.95403200     -0.86420100      1.30133000
 Ni     -0.20755900      3.65586000      2.27425000
 Ni      0.14198300     -1.08169000     -3.11490000
 Ni      3.28241000     -0.63178300     -0.62775900
 Ni      0.76091600     -1.64879000     -0.55754800
 Ni      2.49985000     -2.57230000     -2.39194000
 Ni      3.41352000      2.23722000     -1.71360000
 Ni      1.87045000     -0.51004900      3.67646000
 Ni      1.44994000      0.22010600      1.17976000
 Ni      2.59066000      0.13811700     -3.10798000
 Ni      1.30676000      3.62069000     -2.00559000
 Ni     -2.23162000     -2.34644000     -3.31406000
 Ni      3.98355000     -1.15947000      1.83049000
 Ni     -1.71517000     -2.73624000     -0.57756800
 Ni      3.96850000      1.26969000      1.11274000
 Ni      0.97546400      0.92363500     -1.30934000
 Ni     -2.03575000      0.44491900     -3.80473000
 Ni     -4.15069000     -1.46980000     -1.29129000
 Ni      2.11451000      2.25180000      2.86299000
 Ni     -0.30998200      0.98323200      3.07453000
 Ni      2.95953000     -3.18641000      0.38337600
 Ni     -1.19738000     -3.30866000      2.04662000
 Ni     -2.98803000      2.94614000     -0.05748080
 Ni      1.63924000      2.87353000      0.44054900
 Ni     -2.69243000      2.46454000      2.46232000
 Ni     -2.71003000     -0.28945600      3.25702000
 Ni      0.42844600      1.76465000     -3.89378000
 Ni     -0.72972400      1.67883000      0.56002200
 Ni     -3.42771000     -2.04585000      1.50586000
 Ni     -0.46247600     -1.50763000      3.95971000
 Ni     -3.90341000      1.10338000     -1.88923000
 Ni      1.27073000     -2.36619000      2.05679000
  C     -4.09328000     -3.68844000     -1.73911000
  O     -5.01260000     -4.57487000     -1.90160000
  C     -4.82319000      2.45834000      1.81324000
  O     -5.95343000      2.77430000      2.34905000
  C     -0.28735700      0.08106170      5.63230000
  O     -0.53034000      0.20028400      6.86611000
  C      3.10921000      4.90911000     -1.18921000
  O      4.28182000      5.41379000     -1.08475000
  C     -5.50305000      2.66972000     -1.21782000
  O     -6.76083000      2.61700000     -1.01102000
  C     -4.77663000     -1.05563000     -4.20228000
  O     -5.36687000     -0.95597800     -5.39395000
  C      3.56144000     -4.57269000      1.68290000
  O      4.62925000     -5.13455000      2.13070000
  C     -1.02720000      5.03636000     -2.39716000
  O     -1.78671000      6.08262000     -2.50315000
  C      5.72441000     -1.70445000      1.19007000
  O      6.89375000     -1.96845000      1.66641000
  C     -1.68487000      2.37628000     -5.12466000
  O     -2.24198000      3.20709000     -5.90750000
  C      4.86055000      0.35833500      3.35734000
  O      5.90205000      0.37369200      4.09394000
  C     -4.28105000     -4.22974000      1.13263000
  O     -5.30661000     -5.00699000      1.07855000
  C      0.88971900      5.87378000      2.46821000
  O      1.50694000      6.83469000      3.09533000
  C      3.12632000      3.34734000     -4.18233000
  O      3.07994000      3.87918000     -5.33968000
  C     -3.76551000     -2.27402000     -4.34734000
  O     -4.36336000     -3.07936000     -5.14757000
  C      2.03525000      4.97070000      1.57083000
  O      3.08111000      5.76706000      1.48257000
  C     -0.64763900      4.61769000     -3.82281000
  O     -1.10609000      5.36915000     -4.77284000
  C      5.39695000     -1.59297000     -0.22894900
  O      6.36550000     -1.82438000     -1.05967000
  C      1.87242000      5.63770000     -0.97301900
  O      1.80943000      6.87201000     -0.63404500
  C     -3.71136000     -2.19022000      4.15379000
  O     -4.39952000     -2.58928000      5.13882000
  C      1.81221000     -3.00548000      4.25959000
  O      2.35415000     -3.97863000      4.89694000
  C      4.85514000     -2.28554000     -2.63845000
  O      5.86553000     -2.86619000     -3.17071000
  C      2.21968000     -4.92416000      2.14557000
  O      2.05432000     -5.80629000      3.06279000
  C     -1.33038000     -1.83290000     -5.37305000
  O     -1.59841000     -1.65175000     -6.61271000
  C     -4.57183000      0.64619600     -3.98889000
  O     -5.45012000      1.28148000     -4.67382000
  C     -5.46576000      0.17735200     -0.09892920
  O     -6.72641000      0.38230900      0.23903200
  C      4.23742000      3.03312000     -3.34926000
  O      5.40822000      3.32094000     -3.82972000
  C     -5.29591000     -1.39700000     -2.74499000
  O     -6.45664000     -1.86308000     -3.02727000
  C     -0.54593500      5.56748000      2.71991000
  O     -1.42254000      6.36055000      3.22983000
  C     -0.38066400     -2.90422000     -4.90328000
  O      0.15253600     -3.67597000     -5.78074000
  C      5.81480000      1.10195000     -0.24298400
  O      7.06114000      0.87216300     -0.07723030
  C      0.53347400      3.83533000     -4.95106000
  O      0.52349000      4.26917000     -6.22632000
  C      1.93326000     -5.02980000     -2.70451000
  O      2.25638000     -6.17181000     -3.16326000
  C     -2.16641000     -4.58202000     -2.71192000
  O     -2.81771000     -5.67534000     -3.03257000
  C      2.76412000      4.21950000      4.06311000
  O      3.57453000      5.21326000      3.94002000
  C     -2.96495000      4.69263000      2.85791000
  O     -3.85043000      5.43861000      3.38509000
