#B3LYP/6-31+G(d) OPT FREQ

110, Energy = -12294.10903171 au

0 1
 Ni      0.42019400     -3.63629000     -2.25393000
 Ni     -1.43066000     -0.15000400     -1.23524000
 Ni      0.67715700     -4.34197000      0.04930000
 Ni     -0.54218500      4.62906000     -0.26050900
 Ni     -1.31316000      2.54814000     -2.06505000
 Ni     -3.21277000      0.67265600      0.61462000
 Ni     -0.99967800     -0.80328200      1.28779000
 Ni     -0.26544700      3.74914000      2.58336000
 Ni      0.28332000     -0.95516700     -3.19786000
 Ni      3.46212000     -0.55033200     -0.80543400
 Ni      0.76186300     -1.62411000     -0.59560300
 Ni      2.66739000     -2.51381000     -2.39948000
 Ni      3.61650000      1.99201000     -1.54838000
 Ni      1.71312000     -0.26173300      3.75501000
 Ni      1.41805000      0.27421800      1.16691000
 Ni      2.64853000      0.30238400     -3.25603000
 Ni      1.14228000      3.74154000     -1.99852000
 Ni     -2.01949000     -2.03207000     -2.97310000
 Ni      3.57878000     -1.18659000      1.68613000
 Ni     -1.80825000     -2.90414000     -0.48505300
 Ni      3.94370000      1.30195000      1.04211000
 Ni      0.98111600      0.94403400     -1.36127000
 Ni     -1.95689000      0.45250200     -3.99749000
 Ni     -3.75862000     -1.29241000     -1.14947000
 Ni      1.89469000      2.15609000      3.05732000
 Ni     -0.37683500      1.09925000      3.30505000
 Ni      3.10550000     -2.94064000      0.01087040
 Ni     -1.16118000     -3.38320000      1.99029000
 Ni     -3.17285000      3.41222000     -0.03303560
 Ni      1.59425000      2.75430000      0.38895900
 Ni     -2.58855000      2.67775000      2.48251000
 Ni     -2.61134000      0.10104100      3.38640000
 Ni      0.54715700      1.96741000     -3.94288000
 Ni     -0.79499500      1.75751000      0.56618200
 Ni     -3.28833000     -2.08818000      1.34296000
 Ni     -0.54207700     -1.49930000      3.74466000
 Ni     -4.01332000      1.18593000     -2.03289000
 Ni      1.16636000     -2.23541000      1.85898000
  C     -3.41229000      4.44727000      2.85849000
  O     -3.72806000      5.16707000      3.86868000
  C     -3.53966000      4.84611000      1.43188000
  O     -3.93308000      6.04293000      1.16237000
  C     -1.01086000      5.73691000      1.90723000
  O     -1.62477000      6.73410000      2.46078000
  C      5.43366000      2.09068000     -2.07012000
  O      6.53618000      2.56028000     -2.57485000
  C     -0.31090700      3.64832000     -4.35230000
  O     -0.70884400      4.19035000     -5.44866000
  C      5.46683000      0.65975100     -1.54467000
  O      6.21156000     -0.08747030     -2.34160000
  C     -1.46630000      2.36697000      5.29331000
  O     -1.35533000      2.80113000      6.48208000
  C      1.83613000     -5.66614000     -1.39953000
  O      2.33564000     -6.81439000     -1.13369000
  C      0.73977400      2.86915000      5.27146000
  O      1.49025000      3.51176000      6.06952000
  C     -3.59888000     -4.17728000     -1.26022000
  O     -4.19141000     -4.95534000     -2.08125000
  C      0.71385400      1.27964000      5.23301000
  O      0.49489200      0.93164200      6.46221000
  C     -4.28612000      2.97109000     -3.12828000
  O     -5.33216000      3.06577000     -3.90135000
  C     -2.39979000      1.17101000      5.03382000
  O     -3.03044000      0.92887800      6.13679000
  C      1.98305000     -5.14655000     -2.77032000
  O      2.61426000     -5.75486000     -3.70183000
  C     -3.02199000      2.92153000     -4.47809000
  O     -3.18945000      4.00775000     -5.16310000
  C     -1.92320000      4.99262000     -2.58644000
  O     -2.69255000      5.35138000     -3.58923000
  C     -4.14753000      3.92839000     -1.88363000
  O     -4.72884000      5.04065000     -2.18267000
  C     -1.99467000      5.66652000     -1.24280000
  O     -2.51629000      6.80130000     -1.49311000
  C      6.33797000      0.92251600     -0.05469730
  O      7.46984000      1.36902000     -0.47019500
  C      6.09061000      0.92342900      1.40350000
  O      7.27150000      0.83277900      1.94016000
  C     -4.98706000      2.95529000      0.88143100
  O     -5.84457000      3.68058000      1.49746000
  C     -5.68874000      1.08905000     -1.09646000
  O     -6.86200000      0.74523500     -1.49654000
  C      4.50678000     -3.37795000     -2.34990000
  O      5.44341000     -4.13573000     -2.78297000
  C     -3.64531000     -4.32091000      0.21481400
  O     -4.18005000     -5.36833000      0.72237700
  C      2.71314000      2.29848000     -4.72922000
  O      3.29167000      2.90863000     -5.70792000
  C     -4.40287000     -0.29660400     -3.81767000
  O     -5.39024000     -0.37450000     -4.66289000
  C     -0.54693700      4.84419000     -3.36745000
  O     -0.32349800      6.08262000     -3.55535000
  C      1.31174000      5.77330000     -0.42906500
  O      1.44311000      6.97231000      0.01785400
  C     -1.08102000     -6.02397000     -0.21653600
  O     -1.32093000     -7.28740000     -0.30141400
  C      2.48080000      5.23747000     -1.15115000
  O      3.64536000      5.77382000     -1.16709000
  C     -0.48063200      3.60340000      4.53081000
  O     -0.78163400      4.75649000      5.03255000
  C     -5.68402000      1.63549000      0.33943000
  O     -6.75107000      1.40058000      1.02498000
  C      5.13693000     -2.32364000     -0.04176960
  O      6.31940000     -2.70008000      0.30132000
  C     -0.71013400     -1.21379000     -5.27296000
  O     -0.43566400     -1.59326000     -6.49887000
  C      5.34982000     -2.42398000     -1.56086000
  O      6.42670000     -1.95572000     -2.21310000
  C     -2.34538000      1.91451000     -5.32816000
  O     -2.27509000      2.22125000     -6.57684000

