#B3LYP/6-31+G(d) OPT FREQ

110, Energy = -11900.69450034 au

0 1
 Ni      0.23487000     -3.50984000     -2.45331000
 Ni     -1.39488000     -0.26799600     -1.19399000
 Ni      0.64189800     -4.43253000      0.25120300
 Ni     -0.55539800      4.42778000     -0.46366800
 Ni     -1.19420000      2.37697000     -1.94703000
 Ni     -3.15770000      0.51134900      0.61473700
 Ni     -0.97097100     -0.92573300      1.30735000
 Ni      0.05880790      3.56766000      2.16827000
 Ni      0.31356000     -1.07132000     -3.26323000
 Ni      3.15631000     -0.53936900     -0.60517500
 Ni      0.73522400     -1.66200000     -0.57858000
 Ni      2.45937000     -2.63697000     -2.52729000
 Ni      3.27530000      2.14323000     -1.35532000
 Ni      1.88175000     -0.47527300      4.01333000
 Ni      1.44022000      0.26927800      1.22229000
 Ni      2.58565000      0.12253600     -3.14772000
 Ni      1.14409000      3.53894000     -2.18590000
 Ni     -2.23044000     -2.08177000     -2.98161000
 Ni      3.82960000     -1.33042000      1.75467000
 Ni     -1.67773000     -2.89939000     -0.40730200
 Ni      3.75978000      1.53264000      1.10717000
 Ni      0.95108400      0.89653900     -1.31344000
 Ni     -1.80105000      0.46664600     -3.64798000
 Ni     -3.82288000     -1.56702000     -1.25030000
 Ni      2.19994000      2.41657000      3.05029000
 Ni     -0.21017800      0.96506000      3.09806000
 Ni      2.94943000     -3.09425000     -0.01243630
 Ni     -1.24959000     -3.82663000      2.13326000
 Ni     -3.01397000      3.22885000     -0.14443300
 Ni      1.60419000      2.86043000      0.34628400
 Ni     -2.39345000      2.41889000      2.33050000
 Ni     -2.64086000     -0.23468100      3.13886000
 Ni      0.50493900      1.64857000     -3.86134000
 Ni     -0.71498200      1.66323000      0.51624700
 Ni     -3.40544000     -2.25151000      1.31170000
 Ni     -0.59064700     -1.44994000      4.02420000
 Ni     -3.68457000      1.09375000     -1.74055000
 Ni      1.16826000     -2.31471000      1.95965000
  C     -5.04745000     -1.02847000     -3.32430000
  O     -6.08005000     -0.52334100     -3.92599000
  C      0.88159400     -0.83758800     -5.46902000
  O      1.46132000     -0.88791800     -6.61566000
  C     -4.41349000     -2.25166000     -3.77422000
  O     -4.99414000     -2.96521000     -4.64974000
  C     -1.06959000      2.76375000     -5.27956000
  O     -1.22517000      3.72719000     -6.11743000
  C     -2.99942000      4.78369000     -1.73607000
  O     -3.72796000      5.61546000     -2.36444000
  C     -1.08326000     -4.84184000      4.22534000
  O     -0.46212800     -5.81102000      4.80469000
  C      5.63963000     -1.01441000      0.23217700
  O      6.77918000     -0.50856300     -0.09142870
  C     -4.72651000     -3.97804000      1.48442000
  O     -5.26747000     -5.07079000      1.67097000
  C      1.06812000     -6.26962000     -0.82908100
  O      0.98928200     -7.48905000     -1.23906000
  C      3.72837000      4.44019000      0.01869660
  O      4.58317000      5.13863000     -0.65121800
  C      2.04863000      5.20292000      1.72924000
  O      2.33951000      6.41168000      2.10960000
  C      2.30853000      5.26950000      0.15041300
  O      2.21235000      6.38580000     -0.47605900
  C      5.42803000     -2.46322000      0.39148100
  O      6.39899000     -3.28306000      0.25553100
  C      0.80202300     -3.24955000     -4.61167000
  O      1.29368000     -3.91029000     -5.60074000
  C      0.88004500     -5.16417000      2.45744000
  O      1.33124000     -6.15563000      3.13162000
  C     -0.81840100      5.77147000     -1.92793000
  O     -1.24930000      6.95847000     -2.12354000
  C     -2.94870000      5.05368000      1.44633000
  O     -3.60967000      6.12953000      1.67773000
  C      4.84993000     -2.59932000     -2.59665000
  O      5.92922000     -2.98613000     -3.18422000
  C      1.33027000      2.32061000      5.20903000
  O      1.45368000      2.90095000      6.33775000
  C      4.23566000      3.88364000      1.45546000
  O      5.34906000      4.47104000      1.74239000
  C      0.41476600      4.60066000     -3.95727000
  O      0.52844600      5.21295000     -5.07526000
  C      2.64366000     -4.86911000     -2.34551000
  O      3.10274000     -5.73844000     -3.17549000
  C      0.96854100     -0.16500700      5.97114000
  O      1.47544000      0.02726400      7.13760000
  C     -0.47821700      0.00298713      5.79755000
  O     -1.19109000      0.51082500      6.71990000
  C      5.25582000     -0.51325500      3.44954000
  O      6.34145000     -0.72269300      4.10520000
  C     -5.34495000      1.70184000     -0.19271500
  O     -6.60586000      1.81603000     -0.07885750
  C      0.06327150     -2.12573000     -5.43365000
  O     -0.87966500     -2.35254000     -6.28068000
  C     -2.42683000     -5.16135000      1.35886000
  O     -2.72267000     -6.35916000      1.76121000
  C     -3.13989000     -4.97003000      0.03186250
  O     -3.36219000     -5.92728000     -0.78474700
  C     -2.63767000     -2.83147000      4.53829000
  O     -3.18424000     -3.44601000      5.53569000
  C     -0.84595100      5.10489000     -3.30560000
  O     -1.92251000      5.21638000     -4.06849000
  C      3.12286000      4.27272000      2.63168000
  O      3.54525000      4.77434000      3.73456000
  C     -4.35222000     -3.82194000     -0.00805432
  O     -5.30646000     -4.27936000     -0.78873600
  C      2.47048000     -5.81260000     -1.12455000
  O      3.45694000     -6.46846000     -0.62484500
  C      3.74537000      0.45522600      4.98589000
  O      4.55119000      0.25211500      5.95476000
  C      3.44728000     -2.59898000      3.90536000
  O      4.08529000     -3.42806000      4.63719000

