#B3LYP/6-31+G(d) OPT FREQ

110, Energy = -12368.91573586 au

0 1
 Ni      0.13708200     -3.37526000     -2.55479000
 Ni     -1.46049000     -0.18770300     -1.20492000
 Ni      0.67334100     -4.46259000      0.22107800
 Ni     -0.54249700      4.65305000     -0.41928100
 Ni     -1.13141000      2.43750000     -1.99412000
 Ni     -3.27542000      0.71031400      0.84974100
 Ni     -1.00981000     -0.78890300      1.37695000
 Ni     -0.10829500      3.86072000      2.51781000
 Ni      0.33373000     -1.00679000     -3.58091000
 Ni      3.39707000     -0.59738000     -0.82378500
 Ni      0.82641400     -1.64199000     -0.58563100
 Ni      2.54502000     -2.42320000     -2.63563000
 Ni      3.25526000      1.99719000     -1.59334000
 Ni      1.68456000     -0.63822000      4.01702000
 Ni      1.42457000      0.28988400      1.22225000
 Ni      2.79644000      0.23138700     -3.57908000
 Ni      1.11181000      3.69188000     -2.16968000
 Ni     -2.34495000     -2.05926000     -3.44599000
 Ni      3.42354000     -1.18977000      1.82466000
 Ni     -1.58856000     -2.65203000     -0.48130800
 Ni      3.97709000      1.32277000      0.82864200
 Ni      0.97646900      0.87412800     -1.37986000
 Ni     -1.77620000      0.34193800     -3.76834000
 Ni     -3.97578000     -1.25144000     -0.91473500
 Ni      2.09345000      2.44421000      3.16055000
 Ni     -0.21549600      1.06788000      3.17129000
 Ni      2.81574000     -3.28616000      0.05452300
 Ni     -1.27617000     -3.23530000      2.15378000
 Ni     -2.69467000      3.21356000     -0.14027000
 Ni      1.58707000      2.84410000      0.52330700
 Ni     -2.27343000      2.78009000      2.63569000
 Ni     -2.89233000     -0.32125900      3.27941000
 Ni      0.71973500      1.58211000     -4.02774000
 Ni     -0.74157400      1.70999000      0.58922900
 Ni     -3.47661000     -1.93019000      1.45013000
 Ni     -0.80653300     -1.51214000      4.21827000
 Ni     -3.96048000      1.24673000     -1.70761000
 Ni      1.14919000     -2.36122000      1.99798000
  C      1.03040000      0.56453100      5.93115000
  O      1.79274000      0.66293900      6.95292000
  C      2.42134000     -2.63218000      4.38397000
  O      2.60833000     -2.67839000      5.65755000
  C      1.23883000     -3.42721000     -4.73592000
  O      0.31657000     -4.09742000     -5.33593000
  C      1.57929000     -1.88379000     -5.03709000
  O      1.61737000     -2.09746000     -6.30476000
  C      1.92896000      4.71704000      2.35880000
  O      2.55919000      5.22356000      3.37661000
  C      1.58621000     -6.13584000     -0.50862300
  O      1.21591000     -7.35523000     -0.68821600
  C     -5.92296000      1.67616000     -2.46585000
  O     -7.04713000      1.78202000     -1.86666000
  C      0.38666600      6.35151000     -0.54176800
  O      0.31991300      7.59980000     -0.36755900
  C      1.74888000      5.66095000     -0.45767900
  O      2.76450000      5.90733000     -1.21594000
  C      2.74960000      2.68651000     -4.15184000
  O      3.39206000      3.19565000     -5.17308000
  C     -0.02713800      0.17702900     -5.40146000
  O      0.11022800     -0.12514100     -6.76065000
  C      4.10683000      0.54965900     -5.07082000
  O      5.08012000      1.24785000     -5.53913000
  C      2.32087000     -4.60553000      2.14280000
  O      2.56429000     -5.84028000      2.21971000
  C     -1.83992000      4.75464000     -2.16663000
  O     -2.85722000      5.44159000     -2.55430000
  C     -2.54410000     -2.33378000      4.38404000
  O     -3.13199000     -2.98054000      5.43243000
  C      0.87883000      2.07923000      5.18555000
  O      1.68070000      2.75378000      5.94685000
  C     -0.43136700      4.94830000     -2.85096000
  O     -0.25268000      5.88060000     -3.71438000
  C      2.60700000     -3.78366000     -4.16258000
  O      3.24033000     -4.11940000     -5.23059000
  C     -5.67857000     -0.91374600      1.73430000
  O     -6.83155000     -1.44447000      1.92446000
  C     -3.93477000     -1.99827000     -4.43503000
  O     -4.43150000     -2.97580000     -5.12989000
  C      4.22335000      3.26569000      3.59326000
  O      4.74058000      4.43693000      3.74458000
  C      5.64111000      0.98007900     -0.29004600
  O      6.82590000      1.48969000     -0.34405100
  C      2.82545000     -5.43927000     -0.71987900
  O      3.82076000     -6.01482000     -1.30457000
  C     -4.29008000     -0.62057800     -4.29988000
  O     -5.31909000     -0.05117240     -4.79482000
  C     -0.31083600      3.33829000      4.92126000
  O      0.00035077      4.31419000      5.69303000
  C     -1.93529000      4.87485000      2.11722000
  O     -2.46001000      5.99731000      2.67426000
  C     -5.27408000      0.97963900      0.06752870
  O     -6.22829000      1.71763000      0.53229000
  C     -4.92754000     -0.02061720      2.77940000
  O     -5.70393000      0.48373500      3.67623000
  C      3.03063000     -0.11673600     -5.71306000
  O      2.71119000     -0.20304100     -6.95500000
  C      5.34152000     -0.32857500     -0.93483800
  O      6.19432000     -1.14478000     -1.45299000
  C     -5.81026000     -0.55008300      0.11668700
  O     -6.80873000     -0.99423700     -0.53771000
  C      1.98343000      5.68008000      1.16321000
  O      2.23826000      6.92358000      1.28717000
  C     -1.44501000     -2.28805000     -5.12860000
  O     -1.74089000     -2.90884000     -6.20429000
  C      2.64635000     -3.82754000      3.51542000
  O      3.36549000     -4.72137000      4.09456000
  C      0.06495100     -0.64268400      5.82426000
  O     -0.11039300     -1.10927000      7.01813000
  C     -1.77666000      3.25861000      4.42526000
  O     -2.56231000      3.91825000      5.20561000

