#B3LYP/6-31+G(d) OPT FREQ

110, Energy = -12003.16467382 au

0 1
 Ni      0.17356600     -3.40573000     -2.32132000
 Ni     -1.33710000     -0.19579000     -1.19044000
 Ni      0.77784800     -4.47394000      0.31862800
 Ni     -0.53071400      4.31397000     -0.32958700
 Ni     -1.21773000      2.42533000     -2.04596000
 Ni     -3.02241000      0.56815200      0.71901800
 Ni     -0.94757700     -0.85626600      1.35787000
 Ni     -0.21049300      3.68043000      2.48982000
 Ni      0.39150600     -0.97880900     -3.21408000
 Ni      3.13565000     -0.48831400     -0.79311300
 Ni      0.80078000     -1.63950000     -0.57059800
 Ni      2.69669000     -2.27420000     -2.44210000
 Ni      3.29429000      1.96733000     -1.62090000
 Ni      1.92250000     -0.40110700      3.66852000
 Ni      1.40343000      0.23065200      1.18037000
 Ni      2.77939000      0.20748900     -3.45602000
 Ni      1.30612000      3.48642000     -2.24649000
 Ni     -1.96630000     -2.07646000     -2.89953000
 Ni      3.74100000     -1.17349000      1.62213000
 Ni     -1.52445000     -2.70855000     -0.35912800
 Ni      3.78666000      1.26463000      1.00125000
 Ni      0.96972400      0.88411600     -1.38616000
 Ni     -1.92121000      0.41143000     -3.71741000
 Ni     -3.67742000     -1.30772000     -1.05755000
 Ni      1.97416000      2.34746000      3.10331000
 Ni     -0.37374600      1.16359000      3.27245000
 Ni      3.00965000     -2.99348000      0.04099110
 Ni     -1.20795000     -3.51576000      2.26024000
 Ni     -2.79439000      3.37928000     -0.06953900
 Ni      1.60265000      2.79038000      0.44001900
 Ni     -2.49582000      2.74085000      2.63807000
 Ni     -2.71010000     -0.05737900      3.45182000
 Ni      0.58421500      1.78312000     -4.09996000
 Ni     -0.73975000      1.69528000      0.57580800
 Ni     -3.38626000     -1.92976000      1.52364000
 Ni     -0.67831200     -1.60477000      3.84382000
 Ni     -3.51870000      1.22566000     -1.93515000
 Ni      1.19516000     -2.33942000      1.88977000
  C     -2.68836000      3.89508000     -3.16441000
  O     -3.66712000      3.95652000     -3.98340000
  C     -3.94227000     -1.57615000      4.73375000
  O     -4.60526000     -1.76231000      5.82141000
  C     -4.33213000      0.26803400     -4.19597000
  O     -5.22681000      0.12475500     -5.07049000
  C      2.94552000      4.33857000      2.44950000
  O      3.67891000      5.26326000      2.92093000
  C      5.16514000     -2.69990000     -1.29093000
  O      6.13203000     -3.47182000     -1.72470000
  C      3.81099000      0.52468400      4.80374000
  O      4.64835000      0.35799800      5.77059000
  C      5.50914000     -2.22400000      0.23169600
  O      6.50081000     -2.87007000      0.75093800
  C      5.59255000     -0.42258500     -1.29523000
  O      6.79728000     -0.29004200     -1.75812000
  C      0.11423900     -2.87704000     -4.84011000
  O     -0.19395200     -3.79252000     -5.76534000
  C      2.04830000     -4.91695000      2.34022000
  O      2.98334000     -5.24586000      3.18316000
  C      2.64656000      3.21741000     -4.31004000
  O      2.94139000      4.34323000     -4.90440000
  C     -3.14080000      5.16962000      0.77458900
  O     -3.49294000      6.39687000      0.66623900
  C     -2.23921000      0.51038700      5.38512000
  O     -2.15427000      0.11739100      6.60847000
  C     -2.66376000      3.13687000      4.53629000
  O     -2.58974000      4.20549000      5.26156000
  C      2.71195000      1.91157000     -5.68146000
  O      3.02362000      2.44103000     -6.82165000
  C     -2.37417000     -3.45265000      4.29766000
  O     -2.98944000     -4.20751000      5.18161000
  C     -0.32484800      3.33141000     -4.83063000
  O     -0.24287300      3.96984000     -5.97603000
  C     -1.62587000      5.16226000      2.76030000
  O     -1.69186000      6.38382000      3.14834000
  C      4.96690000     -1.48447000     -2.33826000
  O      5.51103000     -1.56649000     -3.49206000
  C     -2.42222000      4.82781000     -1.96105000
  O     -2.72642000      6.01120000     -2.37784000
  C      3.76726000      2.08869000     -4.31337000
  O      4.95326000      2.28138000     -4.78894000
  C     -0.14923000     -4.45330000      4.10872000
  O      0.15749100     -5.57751000      4.62126000
  C      3.52133000     -1.22455000     -5.16115000
  O      3.50594000     -1.33281000     -6.44371000
  C      0.68580700     -1.69529000     -5.39104000
  O      0.99571900     -1.61600000     -6.62548000
  C     -0.37730400      2.33224000      5.07235000
  O     -0.89690600      2.40455000      6.24784000
  C      0.80654600      3.20662000      4.79059000
  O      1.13808000      3.92094000      5.83582000
  C     -1.32050000      4.14707000     -4.05818000
  O     -1.46121000      5.36705000     -4.29214000
  C     -2.97843000      1.85899000      5.29478000
  O     -3.76083000      2.14037000      6.32101000
  C      1.63834000      5.57082000     -0.81908800
  O      2.27350000      6.66162000     -0.73259500
  C      1.00727000     -5.83101000      1.99136000
  O      0.77136000     -6.97022000      2.53975000
  C      1.70971000     -5.95951000     -0.84964100
  O      1.87790000     -7.23545000     -0.71555900
  C     -5.33822000     -0.91666200      2.38918000
  O     -6.61340000     -1.02315000      2.48516000
  C      2.40455000     -5.40318000     -1.94471000
  O      3.15830000     -5.96063000     -2.79435000
  C      5.70820000     -0.61533800      0.30949800
  O      6.80260000     -0.22243600      0.85678300
  C     -3.14172000      4.97568000      2.30139000
  O     -4.15781000      5.31543000      3.02464000
  C      1.71297000      0.71306000     -5.65011000
  O      1.76458000      0.41924800     -6.89698000

