110
Energy = -11270.86316891 au
 Ni      0.11815900     -3.45728000     -2.26755000
 Ni     -1.37267000     -0.24103900     -1.16460000
 Ni      0.51247600     -4.13755000      0.26164400
 Ni     -0.55992200      4.26016000     -0.29163700
 Ni     -1.11866000      2.27788000     -1.90488000
 Ni     -3.11221000      0.51639200      0.67391400
 Ni     -0.94724300     -0.86749300      1.31154000
 Ni     -0.11435900      3.45497000      2.31913000
 Ni      0.33350500     -0.99582000     -3.10766000
 Ni      3.17095000     -0.49573000     -0.69859200
 Ni      0.72706700     -1.60952000     -0.53858600
 Ni      2.40687000     -2.42675000     -2.48723000
 Ni      3.40604000      2.01037000     -1.46303000
 Ni      1.81173000     -0.41987600      3.77303000
 Ni      1.38312000      0.23291900      1.18263000
 Ni      2.68538000      0.12914100     -3.31169000
 Ni      1.22165000      3.58123000     -2.11817000
 Ni     -2.06906000     -2.13857000     -2.93113000
 Ni      3.56712000     -1.12795000      1.80539000
 Ni     -1.66131000     -2.76640000     -0.40774600
 Ni      3.78022000      1.37288000      1.03937000
 Ni      0.97170900      0.87256600     -1.30786000
 Ni     -1.79628000      0.37596300     -3.64973000
 Ni     -3.77952000     -1.39745000     -1.07034000
 Ni      2.12422000      2.21347000      2.92201000
 Ni     -0.30327900      0.99587800      3.13467000
 Ni      2.84901000     -3.02430000      0.05282640
 Ni     -1.21666000     -3.45406000      2.05571000
 Ni     -2.85665000      3.02937000     -0.03544850
 Ni      1.60732000      2.72002000      0.40061400
 Ni     -2.44074000      2.42597000      2.40316000
 Ni     -2.63999000     -0.12980100      3.24297000
 Ni      0.58620200      1.54639000     -3.85676000
 Ni     -0.71985700      1.61981000      0.54750600
 Ni     -3.27201000     -1.99104000      1.41904000
 Ni     -0.47907100     -1.55214000      3.91795000
 Ni     -3.53034000      1.14108000     -1.75570000
 Ni      1.17291000     -2.30604000      2.00271000
  C      5.78549000      1.41678000     -1.11528000
  O      7.03443000      1.61121000     -1.18057000
  C     -3.08760000     -4.87196000      0.33090800
  O     -3.88915000     -5.68723000     -0.27175500
  C      2.49009000     -2.60336000      4.73809000
  O      3.18842000     -3.27938000      5.58303000
  C     -3.90205000     -3.88441000     -2.16354000
  O     -4.57613000     -4.95892000     -2.39605000
  C      2.22287000      3.71406000     -4.46618000
  O      2.90631000      4.38398000     -5.32899000
  C      0.84447900     -3.51388000      4.66310000
  O      0.95604900     -4.33220000      5.64299000
  C      5.54365000     -0.05981380     -1.49332000
  O      6.45970000     -0.49263800     -2.41448000
  C      2.42967000     -0.67465600     -5.48623000
  O      3.04482000     -0.68293500     -6.62426000
  C     -0.30685900      5.01753000     -3.29798000
  O     -0.33505200      5.73477000     -4.36673000
  C      0.82933500      0.35191700     -5.91576000
  O      0.76332700      0.18668200     -7.24042000
  C      2.19739000      5.52713000     -1.02891000
  O      2.37121000      6.76747000     -0.72850900
  C      3.63742000     -4.78673000      1.58885000
  O      4.26591000     -5.62532000      2.33574000
  C      1.51802000     -4.49886000      3.17299000
  O      2.12767000     -5.38338000      3.79030000
  C      1.67393000     -2.02380000     -5.17674000
  O      1.20822000     -2.28472000     -6.40020000
  C     -0.46495100      2.97183000      4.85954000
  O     -0.79355300      3.77111000      5.91605000
  C     -1.36694000      5.29777000     -2.38915000
  O     -2.18591000      6.20132000     -2.79974000
  C     -5.90089000     -0.34738100     -0.22329900
  O     -7.16997000     -0.26556700     -0.01763410
  C      3.08098000     -4.94849000     -1.97074000
  O      3.63091000     -6.03767000     -2.38618000
  C      4.02042000      1.90376000     -4.39341000
  O      4.65732000      2.40863000     -5.39275000
  C      5.62478000     -0.88056300     -0.20447000
  O      6.83643000     -1.21820000     -0.07304310
  C      3.79279000      4.06233000      2.10307000
  O      4.64664000      4.97104000      1.79703000
  C     -2.11591000     -2.61589000      5.35304000
  O     -2.62262000     -3.26124000      6.34500000
  C     -2.92951000      4.97272000      2.27425000
  O     -3.64076000      5.73290000      3.02828000
  C     -5.00234000      0.78932700      3.15350000
  O     -6.23629000      0.87901100      3.51268000
  C      3.13377000      4.28201000      3.34348000
  O      3.48102000      5.31200000      4.02248000
  C      1.96960000     -3.42227000     -4.65542000
  O      2.23791000     -4.24931000     -5.60909000
  C     -1.29021000     -2.06083000     -5.35818000
  O     -1.24725000     -2.53490000     -6.55602000
  C      5.37667000     -0.15945200      3.20875000
  O      6.33818000     -0.14157300      4.06492000
  C     -2.65560000     -5.34043000      1.60193000
  O     -3.09936000     -6.50568000      1.93352000
  C     -2.29373000      5.66118000      1.21591000
  O     -2.52898000      6.92457000      1.16463000
  C      3.37827000      4.85117000     -1.47250000
  O      4.42982000      5.59209000     -1.51976000
  C     -5.36800000      2.14916000      0.22406000
  O     -6.60499000      2.39132000      0.49748200
  C     -0.09278720      1.33084000      5.60140000
  O      0.29189700      1.93503000      6.68590000
  C      3.95702000      1.95312000      4.50583000
  O      4.90427000      2.30949000      5.30160000
  C      0.82343200     -0.16981200      6.00532000
  O      0.88230400     -0.20391300      7.32422000
  C     -1.43298000      0.58248100      5.56006000
  O     -1.89955000      0.72890100      6.73652000
