110
Energy = -12112.55630241 au
 Ni      0.39072200     -3.60219000     -2.25640000
 Ni     -1.38324000     -0.19873200     -1.19603000
 Ni      0.69614200     -4.34534000      0.12790400
 Ni     -0.42228400      4.40506000     -0.14319100
 Ni     -1.22960000      2.34166000     -2.01052000
 Ni     -3.13630000      0.45596300      0.72152000
 Ni     -0.97056100     -0.87713000      1.38640000
 Ni     -0.18973300      3.58127000      2.23843000
 Ni      0.34159800     -0.93641500     -3.08573000
 Ni      3.32529000     -0.56111900     -0.72855700
 Ni      0.83790600     -1.66722000     -0.50747100
 Ni      2.67593000     -2.53546000     -2.41084000
 Ni      3.77324000      1.93180000     -1.74086000
 Ni      1.71715000     -0.65907400      3.94481000
 Ni      1.44133000      0.17623000      1.19608000
 Ni      2.92777000      0.34828600     -3.37107000
 Ni      1.29901000      3.52880000     -1.94897000
 Ni     -1.97076000     -2.03815000     -3.05114000
 Ni      3.66527000     -1.08457000      2.06225000
 Ni     -1.56369000     -2.67372000     -0.40471800
 Ni      3.98394000      1.28525000      0.99883700
 Ni      1.05200000      0.88135800     -1.36352000
 Ni     -1.86808000      0.32940100     -3.95647000
 Ni     -3.81191000     -1.33666000     -0.90743700
 Ni      2.01262000      1.97232000      2.94348000
 Ni     -0.35276700      0.94842800      3.19909000
 Ni      3.07360000     -3.40505000      0.14440900
 Ni     -1.20731000     -3.33978000      2.11409000
 Ni     -3.21038000      3.04364000     -0.13691000
 Ni      1.66162000      2.72692000      0.38001100
 Ni     -2.56714000      2.33970000      2.31446000
 Ni     -2.95704000     -0.34148000      3.31462000
 Ni      0.40727800      1.76389000     -3.90722000
 Ni     -0.75342300      1.64775000      0.51897900
 Ni     -3.55114000     -2.05475000      1.60889000
 Ni     -0.77040800     -1.87411000      4.07710000
 Ni     -3.53189000      1.26523000     -1.83406000
 Ni      1.38066000     -2.48691000      2.12823000
  C     -4.87622000     -0.02153880      3.45689000
  O     -5.64327000      0.41740700      4.38502000
  C      6.13121000      1.09417000      0.97886000
  O      7.21086000      0.90070400      1.64076000
  C      1.90587000     -2.25461000      5.09599000
  O      2.62889000     -2.56806000      6.10211000
  C     -5.66979000     -0.25207200      2.20635000
  O     -6.77072000      0.43154300      2.11462000
  C     -1.50954000      3.22361000     -4.53510000
  O     -2.56592000      3.84563000     -4.91079000
  C     -2.61101000     -2.43262000      4.83993000
  O     -2.77376000     -2.79873000      6.06785000
  C     -3.51370000      3.95894000     -2.22002000
  O     -4.05272000      4.92422000     -2.70098000
  C      2.09298000     -4.99810000     -2.35567000
  O      2.28931000     -6.02642000     -3.10952000
  C      3.50120000     -4.44597000      1.72582000
  O      4.25632000     -5.46219000      1.96350000
  C      4.15853000      2.79695000     -3.59860000
  O      4.90065000      3.79271000     -3.85998000
  C     -1.27543000      5.70459000      1.60984000
  O     -1.76540000      6.81095000      1.92527000
  C      0.45899100      1.50725000      5.26070000
  O      0.01197530      1.91357000      6.37739000
  C      1.66202000      5.36943000     -0.69200200
  O      2.33283000      6.51188000     -0.64528100
  C      1.59589000     -6.14975000     -0.29698300
  O      1.58772000     -7.40252000     -0.59929400
  C     -4.01608000      0.13711400     -4.73037000
  O     -4.60113000     -0.04449470     -5.85789000
  C      5.31890000     -1.45367000     -1.28945000
  O      6.49398000     -0.96546400     -1.24124000
  C      1.09879000     -3.53841000      4.88595000
  O      1.42254000     -4.79053000      4.90774000
  C      3.63586000      1.90736000     -4.61496000
  O      3.75425000      2.10930000     -5.87327000
  C      2.89103000     -3.85372000      2.91337000
  O      3.31201000     -4.26421000      4.07539000
  C      5.19241000      0.85319900     -2.62754000
  O      6.30980000      1.31253000     -3.06602000
  C     -3.69657000     -2.78402000      3.86623000
  O     -4.68326000     -3.52021000      4.23296000
  C     -4.97195000      2.89540000      1.47928000
  O     -5.78510000      3.21580000      2.40251000
  C     -5.34994000      2.62134000      0.11855200
  O     -6.51094000      2.53135000     -0.39006600
  C      5.95567000      1.38830000     -0.41170800
  O      7.11375000      1.36611000     -1.00390000
  C      5.02706000     -0.48341700     -3.45411000
  O      5.70797000     -0.73181200     -4.54478000
  C      5.16069000     -1.88098000     -2.76902000
  O      6.04139000     -2.68905000     -3.21668000
  C      4.82478000     -4.24342000     -1.87357000
  O      5.59650000     -5.08401000     -2.46131000
  C     -5.49874000     -1.36035000      1.15302000
  O     -6.67706000     -1.71119000      0.76110000
  C     -0.27858400      3.27047000     -5.23474000
  O      0.01260350      4.02856000     -6.22430000
  C      5.25133000     -0.94463500      3.50678000
  O      6.26549000     -1.50928000      4.05965000
  C      5.17280000     -3.13896000     -0.83967100
  O      6.26669000     -3.28689000     -0.17352800
  C      4.83146000      0.37555500      3.81515000
  O      5.35126000      1.21378000      4.61058000
  C      4.29352000     -2.87119000     -5.02894000
  O      5.48475000     -3.11675000     -5.45249000
  C     -1.23440000     -1.38374000     -5.26352000
  O     -1.24683000     -1.69493000     -6.48889000
  C      2.78467000     -5.61646000     -1.05460000
  O      3.96415000     -6.14265000     -0.85610600
  C     -0.43482200     -3.67201000      5.01593000
  O     -0.78171500     -4.53070000      5.89291000
