#B3LYP/6-31+G(d) OPT FREQ

110, Energy = -12185.42060400 au

0 1
 Ni      0.10963400     -3.46920000     -2.54721000
 Ni     -1.41433000     -0.22749000     -1.28278000
 Ni      0.66842600     -4.32568000      0.01838610
 Ni     -0.42586700      4.19262000     -0.26198000
 Ni     -1.31718000      2.37560000     -2.15261000
 Ni     -3.38585000      0.54265200      0.66754300
 Ni     -0.96052500     -0.90870500      1.32909000
 Ni      0.00525397      3.58660000      2.32763000
 Ni      0.26696900     -1.00203000     -3.33367000
 Ni      3.09347000     -0.61297800     -0.68200300
 Ni      0.78014800     -1.69231000     -0.59336600
 Ni      2.58198000     -2.45170000     -2.68557000
 Ni      3.19374000      2.08196000     -1.58194000
 Ni      1.84791000     -0.37378300      3.58554000
 Ni      1.36920000      0.27645300      1.17637000
 Ni      2.62116000      0.14597300     -3.16339000
 Ni      1.01946000      3.61417000     -2.25548000
 Ni     -2.13832000     -2.56597000     -3.36248000
 Ni      3.74276000     -1.23850000      1.78822000
 Ni     -1.59109000     -2.73016000     -0.46205100
 Ni      3.65072000      1.48659000      1.18256000
 Ni      0.89987400      0.93366100     -1.34948000
 Ni     -1.81626000      0.44168500     -4.02491000
 Ni     -3.82721000     -1.29435000     -1.12905000
 Ni      2.06101000      2.52206000      3.15136000
 Ni     -0.34795700      1.12029000      3.15708000
 Ni      3.21613000     -3.25631000     -0.15544900
 Ni     -1.37435000     -3.54506000      2.10623000
 Ni     -3.15095000      3.02168000     -0.09398530
 Ni      1.66490000      2.97631000      0.48376000
 Ni     -2.64047000      2.41008000      2.67167000
 Ni     -2.63244000     -0.10321000      3.13765000
 Ni      0.81256800      1.62030000     -4.12198000
 Ni     -0.79952100      1.67602000      0.55669200
 Ni     -3.64412000     -2.22721000      1.34492000
 Ni     -0.73245400     -1.71839000      3.93144000
 Ni     -3.66781000      1.26016000     -1.95674000
 Ni      1.21193000     -2.55350000      2.02448000
  C     -2.90016000      2.30230000     -4.06741000
  O     -3.37606000      3.14167000     -5.02725000
  C     -2.62052000     -2.28233000     -5.31843000
  O     -2.73719000     -3.31683000     -6.11029000
  C      0.57920800     -2.44443000     -5.27977000
  O      0.65929600     -2.14866000     -6.50839000
  C     -2.96186000     -4.90890000      1.39950000
  O     -3.00867000     -6.19600000      1.27309000
  C     -4.53105000      2.75501000      1.86052000
  O     -5.84096000      3.02498000      2.31312000
  C      4.82849000     -0.15512300      3.57013000
  O      5.93217000     -0.33289400      4.20450000
  C     -3.02533000     -4.27461000     -2.84009000
  O     -3.80720000     -5.05553000     -3.46746000
  C      0.41704600      0.31719600     -5.56316000
  O      0.63343700      0.19407100     -6.84953000
  C      3.72023000      3.94128000      2.15918000
  O      4.72615000      4.61939000      1.74201000
  C      4.73724000     -2.29271000     -2.54768000
  O      5.78675000     -2.79501000     -3.12333000
  C      1.92616000     -5.85805000     -1.34616000
  O      1.80478000     -6.45729000     -2.54903000
  C     -2.79598000      4.78327000     -1.73042000
  O     -3.79406000      5.58989000     -2.13196000
  C      0.78633100      2.99023000      4.76793000
  O      1.54131000      3.43264000      5.71449000
  C      1.59258000      5.06196000      1.02952000
  O      2.39465000      6.09339000      1.19952000
  C     -4.14863000     -4.17582000      1.15442000
  O     -5.28708000     -4.72204000      0.87510100
  C     -2.28567000     -3.49907000      4.55404000
  O     -3.23698000     -4.34127000      4.73852000
  C     -1.47506000      4.95990000     -2.84803000
  O     -2.06720000      5.37115000     -3.92384000
  C     -0.71559900      2.94671000      5.04087000
  O     -0.86238600      3.38249000      6.26217000
  C      2.90031000      4.36672000      3.28827000
  O      2.83957000      5.41813000      4.02094000
  C     -5.22902000      1.89325000     -0.53968800
  O     -6.51859000      2.06650000     -0.45473500
  C     -1.74022000     -2.63657000      5.53826000
  O     -1.95499000     -2.60005000      6.80654000
  C      3.15860000     -5.08580000     -0.89186600
  O      4.09369000     -5.97501000     -0.81805700
  C     -0.59673400     -3.32702000     -4.65739000
  O     -0.65223000     -4.27419000     -5.54861000
  C      1.20387000     -6.47931000     -0.19841100
  O      1.68770000     -7.65079000      0.00106042
  C      2.19202000     -4.10002000      3.15658000
  O      3.29968000     -4.60534000      3.57067000
  C     -4.16509000     -2.00193000     -4.48972000
  O     -4.81588000     -2.64447000     -5.39305000
  C      2.17587000      2.67333000     -5.03213000
  O      2.26239000      3.06852000     -6.26211000
  C      0.86686600     -4.50197000      3.44892000
  O      0.50783000     -5.39296000      4.29840000
  C      5.05989000     -2.72664000      0.11555200
  O      6.23588000     -3.14959000     -0.24659900
  C      1.86046000     -2.95224000     -4.51956000
  O      2.38588000     -3.68538000     -5.44204000
  C     -1.80729000     -1.02244000     -5.50180000
  O     -1.59457000     -1.05426000     -6.78866000
  C      0.02678340      5.31285000     -2.77669000
  O      0.37037500      6.38043000     -3.40845000
  C     -4.79056000     -1.01917000     -3.37383000
  O     -6.09817000     -0.79782600     -3.69318000
  C     -2.08161000      2.50614000      4.57000000
  O     -2.92835000      2.63419000      5.53432000
  C     -5.29117000     -0.94477700      1.11829000
  O     -6.51583000     -0.87830400      1.53289000
  C      3.25017000      2.97447000     -4.10934000
  O      4.28762000      3.64180000     -4.44546000

