#B3LYP/6-31+G(d) OPT FREQ

110, Energy = -12282.73200331 au

0 1
 Ni      0.24434100     -3.75120000     -2.59617000
 Ni     -1.41856000     -0.22034300     -1.21036000
 Ni      0.48044500     -4.32815000      0.24845300
 Ni     -0.55248600      4.57128000     -0.11241900
 Ni     -1.38128000      2.45269000     -2.08523000
 Ni     -3.28568000      0.55800700      0.78830200
 Ni     -1.01337000     -0.95516800      1.28139000
 Ni     -0.17613500      3.72993000      2.26053000
 Ni      0.36501400     -1.05357000     -3.22302000
 Ni      3.30683000     -0.64388400     -0.86552100
 Ni      0.82025300     -1.76482000     -0.60528600
 Ni      2.82060000     -2.34455000     -2.79501000
 Ni      3.29822000      2.12651000     -1.73612000
 Ni      1.82075000     -0.63228500      3.58619000
 Ni      1.36763000      0.12295300      1.10613000
 Ni      2.79154000      0.18999900     -3.34481000
 Ni      0.98719200      3.61939000     -2.17860000
 Ni     -2.02439000     -2.06123000     -3.26189000
 Ni      3.61795000     -1.32922000      1.67784000
 Ni     -1.59107000     -2.88203000     -0.43215800
 Ni      3.66209000      1.27371000      0.97195500
 Ni      0.95450000      0.86399400     -1.39975000
 Ni     -2.02621000      0.37176100     -3.76641000
 Ni     -3.80902000     -1.20278000     -1.02436000
 Ni      1.94896000      2.04714000      2.84494000
 Ni     -0.42183200      0.96116500      2.91967000
 Ni      2.99098000     -3.31379000      0.12984500
 Ni     -1.16567000     -3.76763000      2.09999000
 Ni     -3.25717000      3.21491000      0.10720600
 Ni      1.48493000      2.75989000      0.32192700
 Ni     -2.62015000      2.54052000      2.44432000
 Ni     -2.99802000     -0.28792500      3.27728000
 Ni      0.60390100      1.77871000     -3.91411000
 Ni     -0.86649600      1.71550000      0.48697400
 Ni     -3.32386000     -2.29085000      1.52207000
 Ni     -0.71137900     -1.65172000      3.75871000
 Ni     -3.75211000      1.25930000     -1.67779000
 Ni      1.16771000     -2.53712000      2.10740000
  C      5.09728000      2.56320000     -2.99200000
  O      5.38396000      3.47995000     -3.84099000
  C     -5.32282000      1.31080000      1.87004000
  O     -6.60068000      1.24323000      1.75367000
  C      2.12963000     -3.00274000      3.96152000
  O      1.71341000     -3.51699000      5.06576000
  C      2.64939000     -5.48480000      1.30327000
  O      3.51876000     -6.10062000      2.08472000
  C      1.69091000     -3.39836000     -5.02183000
  O      1.96647000     -4.41658000     -5.74082000
  C     -5.66694000      0.31997600     -0.80907900
  O     -6.92084000     -0.04079520     -0.78901400
  C      2.64357000     -2.23758000     -4.71174000
  O      3.46771000     -2.10233000     -5.69721000
  C     -4.80580000      0.53088200      3.08563000
  O     -5.76392000      0.15601000      3.84631000
  C      0.95269100     -5.51116000     -2.89951000
  O      0.72308700     -6.31065000     -3.88786000
  C     -0.93494400      3.64268000     -4.59502000
  O     -1.09408000      3.69571000     -5.87930000
  C     -3.74387000     -4.23972000      1.48532000
  O     -4.65718000     -5.13808000      1.24051000
  C      0.24912600     -4.76457000      3.14091000
  O      0.05801760     -5.19973000      4.34108000
  C     -2.08551000      3.44368000     -3.59502000
  O     -2.98227000      4.34515000     -3.89461000
  C      5.11132000     -2.00923000      0.10634700
  O      6.39947000     -2.24494000     -0.07610770
  C      4.45101000     -3.70298000      2.10435000
  O      5.59124000     -4.46693000      2.10064000
  C      3.40972000     -3.66779000      3.44868000
  O      3.89146000     -4.61786000      4.16272000
  C     -5.22526000      2.52779000      0.56768400
  O     -6.11937000      3.41704000      0.81699400
  C     -0.72762200     -2.08879000     -4.92532000
  O     -0.91801300     -1.93874000     -6.18891000
  C     -3.52288000     -0.78637100     -4.69914000
  O     -4.46522000     -0.79257600     -5.58802000
  C      0.07776120     -3.46800000     -4.79632000
  O     -0.46308400     -4.50866000     -5.37089000
  C      4.72469000     -2.41216000     -2.78462000
  O      5.56289000     -3.30139000     -3.17271000
  C      2.85162000      2.07191000     -4.54375000
  O      3.55704000      2.60890000     -5.51056000
  C      1.15067000      5.81785000     -0.16340300
  O      1.38662000      7.03973000      0.13484200
  C     -2.27436000      5.73987000      2.16621000
  O     -3.02724000      6.74977000      2.46090000
  C     -3.38046000      4.51025000      2.71515000
  O     -3.99480000      4.70420000      3.86560000
  C     -2.06149000      5.84531000      0.28369000
  O     -2.38304000      7.13158000      0.03030210
  C      4.96867000     -0.98301700     -2.33490000
  O      6.17513000     -0.51678100     -2.41417000
  C      1.18896000     -5.63220000      2.25629000
  O      1.28953000     -6.88605000      2.60058000
  C      2.85844000     -5.67362000     -0.26119600
  O      3.73408000     -6.60581000     -0.41884700
  C     -0.78314300      5.61658000      2.52822000
  O     -0.39222600      6.79130000      2.85834000
  C     -4.04873000      4.59915000      1.27495000
  O     -4.81894000      5.62260000      1.15455000
  C     -3.21657000     -1.99424000      4.41680000
  O     -3.98927000     -2.41097000      5.37880000
  C      0.16778200      4.42530000     -3.79009000
  O      0.08720390      5.64052000     -4.25431000
  C      2.07998000     -5.70814000     -1.96058000
  O      2.95735000     -6.50520000     -2.47437000
  C     -5.76177000      1.88764000     -0.82407100
  O     -6.65174000      2.60849000     -1.43949000
  C     -1.67381000     -5.23666000      0.33157300
  O     -2.35392000     -6.36312000      0.17263800

