110
Energy = -12001.37372521 au
 Ni      0.04108840     -3.68961000     -2.35580000
 Ni     -1.46931000     -0.16157600     -1.23641000
 Ni      0.73809300     -4.45947000      0.29427800
 Ni     -0.50575800      4.53791000     -0.48531000
 Ni     -1.33644000      2.37855000     -2.00749000
 Ni     -3.32363000      0.62704900      0.69827300
 Ni     -0.98383300     -0.86691600      1.37315000
 Ni     -0.02082550      3.73725000      2.21655000
 Ni      0.16726100     -1.13268000     -3.20885000
 Ni      3.41226000     -0.49210000     -0.54461400
 Ni      0.80909800     -1.65153000     -0.52157600
 Ni      2.54786000     -2.33786000     -2.27154000
 Ni      3.45883000      2.27594000     -1.22982000
 Ni      1.85349000     -0.47263500      3.72100000
 Ni      1.50593000      0.29323500      1.20454000
 Ni      2.75340000      0.16162900     -3.00940000
 Ni      1.23958000      3.43360000     -1.91081000
 Ni     -2.14944000     -2.02271000     -3.14627000
 Ni      3.72613000     -1.18551000      2.06681000
 Ni     -1.59748000     -2.68026000     -0.40173400
 Ni      3.97233000      1.43998000      1.22607000
 Ni      1.00290000      0.90059000     -1.28301000
 Ni     -2.29101000      0.54817500     -3.89605000
 Ni     -3.95886000     -1.19814000     -0.97411000
 Ni      2.42958000      2.44144000      2.97377000
 Ni     -0.28604000      0.98362200      3.15977000
 Ni      3.01111000     -3.18166000      0.30707600
 Ni     -1.50095000     -3.42402000      2.56983000
 Ni     -2.95807000      3.36805000     -0.08095140
 Ni      1.76215000      3.00280000      0.50946200
 Ni     -2.70122000      2.55318000      2.27769000
 Ni     -2.70789000     -0.28275900      3.25062000
 Ni      0.28833500      1.63070000     -3.74624000
 Ni     -0.74799600      1.76530000      0.54417500
 Ni     -3.55811000     -2.10477000      1.62270000
 Ni     -0.76141000     -1.69616000      4.25565000
 Ni     -3.83148000      1.17841000     -2.02296000
 Ni      1.27281000     -2.38697000      2.10466000
  C      0.52433300      5.56732000      2.85489000
  O      1.45799000      6.39682000      3.20168000
  C      2.98300000     -2.69427000      3.47465000
  O      3.49651000     -3.71476000      4.20314000
  C     -0.72970800     -2.36039000     -4.85786000
  O      0.03078000     -2.79661000     -5.78469000
  C      3.03654000      4.36060000      2.16360000
  O      3.26149000      5.60435000      2.42140000
  C     -2.96117000      4.65108000     -2.35187000
  O     -4.01009000      5.30315000     -2.71774000
  C      4.34573000      1.49068000      3.90922000
  O      5.14971000      2.31390000      4.71005000
  C     -3.42513000      4.61772000      1.39581000
  O     -4.06872000      5.71272000      1.71358000
  C     -1.70652000      5.28815000     -1.72719000
  O     -1.60676000      6.51069000     -2.13370000
  C     -1.13693000     -3.78892000      4.68037000
  O     -1.86506000     -4.42057000      5.62712000
  C      4.67972000     -1.14237000     -2.23598000
  O      5.97590000     -1.33014000     -2.46564000
  C      5.42770000     -0.23132300      0.70260400
  O      6.73977000     -0.37358500      0.52384200
  C      1.61634000     -5.28952000      1.78616000
  O      1.07602000     -6.24711000      2.46092000
  C      4.26856000      3.50283000      1.83143000
  O      5.42768000      4.03586000      2.00565000
  C      4.68897000     -0.06103600      3.73524000
  O      5.73054000     -0.47429400      4.54798000
  C     -4.54745000      0.19467200     -3.51779000
  O     -5.63281000      0.15743700     -4.29363000
  C     -1.55927000      3.06786000     -4.17109000
  O     -1.46790000      3.98472000     -5.06991000
  C     -2.85810000     -1.90741000      4.68874000
  O     -3.61587000     -2.44435000      5.63077000
  C      3.23755000      3.80892000      4.75202000
  O      3.93695000      4.89134000      4.75799000
  C     -4.66743000      2.44887000      1.66131000
  O     -5.87408000      2.81423000      2.08235000
  C     -3.06992000      1.04024000     -5.88368000
  O     -4.14958000      0.67991900     -6.47070000
  C      0.93041900      6.30613000      0.38625500
  O      1.51752000      7.24237000      1.04217000
  C      3.16801000     -5.15653000      1.94947000
  O      3.77046000     -6.17680000      2.46570000
  C      3.06491000      4.75333000     -0.48671300
  O      3.35513000      5.99330000     -0.27769900
  C     -1.06538000     -5.57816000     -1.88417000
  O     -1.66914000     -6.44389000     -2.60219000
  C     -3.27555000     -2.04806000     -4.87613000
  O     -4.46280000     -1.93739000     -5.26347000
  C     -0.21627000      0.02823200      5.33406000
  O     -0.41013500      0.43394600      6.59055000
  C     -2.09160000     -2.51715000     -5.44795000
  O     -2.23623000     -3.30533000     -6.50682000
  C     -5.46685000      0.73127000     -0.73314100
  O     -6.76367000      0.88712100     -0.50188700
  C      0.89706600      6.21986000     -1.16962000
  O      1.45284000      7.12415000     -1.88569000
  C      4.22378000     -4.04535000      1.65256000
  O      5.32777000     -4.31924000      2.24993000
  C     -5.34790000     -1.31104000      1.02385000
  O     -6.62651000     -1.17270000      1.32079000
  C     -0.86270800      5.64339000      2.78735000
  O     -1.78012000      6.42278000      3.23672000
  C     -3.33233000     -3.89680000      2.94073000
  O     -3.96187000     -4.57601000      3.91278000
  C      4.27631000      3.95596000     -0.84310700
  O      5.47369000      4.42752000     -0.82553700
  C     -2.92238000      3.52145000     -3.48541000
  O     -4.02290000      3.36542000     -4.11344000
  C      1.91231000     -5.19711000     -1.43013000
  O      2.35439000     -6.52138000     -1.72458000
