110
Energy = -10529.75513838 au
 Ni      0.07740620     -3.46905000     -2.28920000
 Ni     -1.36897000     -0.22892900     -1.16491000
 Ni      0.51229300     -4.17042000      0.25691500
 Ni     -0.50129400      4.16789000     -0.25265100
 Ni     -1.13999000      2.27030000     -1.93276000
 Ni     -3.04910000      0.49016200      0.65739100
 Ni     -0.94711800     -0.86376400      1.28608000
 Ni     -0.07473920      3.47237000      2.26330000
 Ni      0.30267000     -0.98058000     -3.02960000
 Ni      3.05018000     -0.50785700     -0.66696600
 Ni      0.71740200     -1.61198000     -0.53554400
 Ni      2.44857000     -2.34459000     -2.43352000
 Ni      3.29373000      1.97312000     -1.43494000
 Ni      1.85605000     -0.40039300      3.65801000
 Ni      1.36843000      0.22830000      1.16135000
 Ni      2.65167000      0.14106900     -3.15467000
 Ni      1.15941000      3.37803000     -2.09091000
 Ni     -2.03465000     -2.10212000     -2.94894000
 Ni      3.51141000     -1.12265000      1.83282000
 Ni     -1.59249000     -2.69444000     -0.41756500
 Ni      3.71485000      1.34611000      1.06404000
 Ni      0.94635600      0.86267400     -1.29049000
 Ni     -1.82086000      0.39006800     -3.68983000
 Ni     -3.74257000     -1.35098000     -1.08364000
 Ni      2.07037000      2.11205000      2.89567000
 Ni     -0.29662400      0.96198200      2.97514000
 Ni      2.82124000     -3.01886000      0.09524970
 Ni     -1.15678000     -3.38529000      2.07116000
 Ni     -2.80540000      2.99523000     -0.08468900
 Ni      1.61421000      2.72278000      0.42035200
 Ni     -2.40711000      2.34527000      2.42288000
 Ni     -2.64052000     -0.14260000      3.14979000
 Ni      0.50976900      1.55338000     -3.82834000
 Ni     -0.71415700      1.61088000      0.53255400
 Ni     -3.30824000     -1.98240000      1.41672000
 Ni     -0.50637400     -1.54140000      3.76008000
 Ni     -3.51563000      1.11968000     -1.82251000
 Ni      1.14856000     -2.27048000      1.92944000
  C      3.38255000     -3.17745000     -4.65338000
  O      3.59622000     -3.65284000     -5.83293000
  C      2.52121000      3.08934000     -4.73565000
  O      3.16734000      3.69636000     -5.66857000
  C      5.18473000     -1.91105000     -1.68121000
  O      6.45298000     -2.05126000     -1.81590000
  C     -1.15475000      5.66786000      2.74470000
  O     -1.66238000      6.76055000      3.19579000
  C     -0.42823600      0.16679100     -6.02634000
  O     -0.40212000      0.05402860     -7.30929000
  C      5.11523000     -0.12199700      3.55836000
  O      6.18764000      0.08367970      4.22167000
  C     -1.86813000      5.10668000     -2.32753000
  O     -2.40966000      6.15304000     -2.90546000
  C     -5.06865000     -0.73229600     -3.42372000
  O     -6.14610000     -0.98034400     -4.11073000
  C      1.24680000     -3.71326000      4.25335000
  O      1.61860000     -4.48397000      5.21351000
  C      3.20684000     -4.80806000     -2.43578000
  O      3.75060000     -5.88815000     -2.87538000
  C      1.80622000     -4.39116000     -4.39948000
  O      1.89338000     -4.99168000     -5.55610000
  C      3.36687000      4.47205000      1.14079000
  O      4.11734000      5.55476000      1.02865000
  C     -5.78812000      1.26088000     -0.65674000
  O     -7.03796000      1.47159000     -0.43509700
  C     -3.39612000      4.70396000      2.45398000
  O     -3.92732000      5.79459000      2.88286000
  C     -5.52524000     -0.54731600      1.84074000
  O     -6.77373000     -0.38098300      2.10706000
  C     -4.79891000     -3.68086000     -0.54792200
  O     -5.48530000     -4.75176000     -0.74385600
  C      0.04881530     -3.34933000     -4.87280000
  O      0.14230100     -3.90318000     -6.04092000
  C      0.16187600     -1.44953000     -5.48445000
  O      0.25495000     -1.86634000     -6.71344000
  C     -1.71276000     -2.50664000     -5.31303000
  O     -1.79958000     -2.86485000     -6.53672000
  C     -2.60908000     -4.69147000     -2.60489000
  O     -3.28068000     -5.76788000     -2.82295000
  C     -1.30249000      3.64833000      4.67365000
  O     -1.41071000      4.04779000      5.89204000
  C     -0.24279700      3.43386000     -5.17413000
  O     -0.52714500      4.15128000     -6.19889000
  C      5.30668000      0.58387200     -2.89347000
  O      6.54731000      0.38316900     -3.17199000
  C      4.69174000     -2.57919000     -3.62536000
  O      5.93746000     -2.75927000     -3.92580000
  C     -1.13877000      4.15272000     -3.81754000
  O     -1.65218000      5.05332000     -4.59522000
  C     -2.68233000      1.75073000      5.13242000
  O     -2.80315000      2.13170000      6.35596000
  C      3.78856000      1.46705000      4.79703000
  O      4.76561000      1.65837000      5.61189000
  C      2.14176000     -1.78725000     -5.16501000
  O      2.32810000     -2.03867000     -6.45167000
  C      2.06288000     -4.64268000      2.76421000
  O      2.50212000     -5.55866000      3.57028000
  C      2.86079000      4.53955000      2.68013000
  O      3.41539000      5.59197000      3.16040000
  C     -4.06375000      0.09766280     -4.77689000
  O     -4.91258000      0.01578930     -5.76927000
  C     -0.01667900     -5.31199000      3.19386000
  O      0.33932400     -6.15922000      4.09217000
  C      4.05612000     -0.82913800      4.95328000
  O      4.89067000     -0.72702200      5.91911000
  C      3.07988000     -5.27398000      1.39180000
  O      3.71784000     -6.24463000      1.94609000
  C      0.34545800      5.77938000     -2.84956000
  O     -0.11761900      6.64783000     -3.67814000
  C      0.76996100     -6.35923000      1.59435000
  O      1.30822000     -7.26651000      2.31514000
