110
Energy = -11826.79685995 au
 Ni      0.05283090     -3.50539000     -2.49932000
 Ni     -1.38045000     -0.26183900     -1.19813000
 Ni      0.43428300     -4.28939000      0.06940570
 Ni     -0.46516400      4.15606000     -0.21423200
 Ni     -1.21690000      2.41196000     -2.04533000
 Ni     -3.05758000      0.47131800      0.69994000
 Ni     -0.96762300     -0.87837500      1.32665000
 Ni     -0.04577800      3.87549000      2.47580000
 Ni      0.30545400     -1.02338000     -3.22431000
 Ni      3.28786000     -0.56444300     -0.67245800
 Ni      0.73382200     -1.65663000     -0.57866400
 Ni      2.54920000     -2.40527000     -2.60354000
 Ni      3.42078000      2.19234000     -1.46498000
 Ni      1.84932000     -0.33704100      3.80330000
 Ni      1.41766000      0.23687400      1.21273000
 Ni      2.63149000      0.20955700     -3.14818000
 Ni      1.09612000      3.43266000     -2.11553000
 Ni     -2.04407000     -2.30389000     -2.96101000
 Ni      3.77644000     -1.08120000      1.88549000
 Ni     -1.71441000     -2.91263000     -0.48381600
 Ni      3.95352000      1.22779000      1.20621000
 Ni      0.95914500      0.87983300     -1.31090000
 Ni     -1.81748000      0.56205600     -3.66849000
 Ni     -3.81197000     -1.48107000     -1.00142000
 Ni      2.12079000      2.08049000      3.22890000
 Ni     -0.33616200      1.09303000      3.31066000
 Ni      2.97863000     -3.01784000     -0.02427850
 Ni     -1.20065000     -3.35913000      2.02433000
 Ni     -2.88658000      3.09139000     -0.10537000
 Ni      1.68287000      2.81698000      0.50071500
 Ni     -2.45791000      2.40721000      2.56774000
 Ni     -2.66822000     -0.31302300      3.35397000
 Ni      0.36966900      1.71347000     -3.92779000
 Ni     -0.72520900      1.65344000      0.59031300
 Ni     -3.43672000     -2.24653000      1.50733000
 Ni     -0.49528200     -1.34687000      3.92758000
 Ni     -3.52130000      1.20521000     -1.79379000
 Ni      1.21106000     -2.30599000      1.98196000
  C     -3.79765000      3.91089000     -2.23664000
  O     -4.29043000      4.91454000     -2.84134000
  C      4.32446000      2.59150000     -3.62485000
  O      5.05126000      3.41380000     -4.29906000
  C     -0.82078100      0.40278200      5.62134000
  O     -1.38026000      0.79172400      6.71896000
  C     -0.59139100      3.05883000     -5.25646000
  O     -0.41044900      3.90084000     -6.20622000
  C      5.58799000      0.68753500      2.69706000
  O      6.73447000      1.11000000      3.08975000
  C     -5.85544000     -0.36397200     -0.26418200
  O     -7.13433000     -0.44827000     -0.12386000
  C     -2.88318000      3.81898000      4.54051000
  O     -3.50612000      4.42710000      5.48829000
  C      0.97808700     -3.19314000     -5.02888000
  O      1.19949000     -4.24910000     -5.78811000
  C      5.61538000     -0.67753900      0.48038200
  O      6.88337000     -0.68079700      0.66919900
  C      4.20117000      1.00829000      4.13951000
  O      4.93848000      1.55705000      5.05430000
  C     -2.45537000      5.04455000      3.42591000
  O     -3.28883000      5.98366000      3.67055000
  C     -3.28745000     -4.10187000     -2.13510000
  O     -3.91089000     -5.21943000     -2.25567000
  C      4.91263000     -2.66141000     -1.24688000
  O      5.95579000     -3.33323000     -1.59438000
  C      2.69969000     -4.01707000      2.86998000
  O      2.95269000     -4.86081000      3.81142000
  C     -0.16574200      3.08523000      5.19025000
  O     -0.70219600      2.95415000      6.36796000
  C     -4.48892000      4.17081000      2.18476000
  O     -5.15226000      5.18247000      2.63299000
  C     -2.69998000      2.39822000      4.84236000
  O     -2.99177000      2.12855000      6.06380000
  C      0.71055800     -1.67859000     -5.23424000
  O      0.67240400     -1.60929000     -6.50872000
  C     -0.69720700     -3.49303000     -4.67206000
  O     -1.13435000     -3.94733000     -5.78593000
  C      2.58886000     -2.92367000     -4.59627000
  O      3.28833000     -3.04453000     -5.66632000
  C      5.56418000     -1.28694000     -0.95924200
  O      6.45293000     -0.86575500     -1.79211000
  C     -1.63526000     -5.39342000     -0.74680200
  O     -1.85935000     -6.55063000     -1.31824000
  C     -3.32509000     -1.84476000      4.91233000
  O     -3.55285000     -2.08181000      6.15504000
  C     -3.12414000     -4.99138000      0.25127800
  O     -3.49510000     -6.21993000      0.40799700
  C      0.52114700     -0.22412100      5.88324000
  O      0.86184900     -0.22537400      7.12042000
  C     -4.23373000     -3.96202000      0.43885300
  O     -5.39533000     -4.51807000      0.39556200
  C     -0.45359600      4.30959000      4.44940000
  O     -0.45426800      5.20878000      5.34206000
  C     -1.90945000      2.85999000     -4.66771000
  O     -2.84253000      3.65472000     -5.05190000
  C      1.30843000      2.65560000      5.00495000
  O      1.73041000      3.11528000      6.12623000
  C      4.00604000      4.19853000     -0.47907400
  O      4.82223000      5.16540000     -0.55022100
  C      2.21248000     -5.77639000     -0.63243600
  O      2.49896000     -6.98356000     -0.98289300
  C     -1.24510000      5.53053000      2.72555000
  O     -1.09411000      6.80015000      2.82520000
  C     -0.85684300      4.70735000     -3.02791000
  O     -1.30225000      5.50635000     -3.90660000
  C      1.71064000      5.17543000      1.67180000
  O      2.31021000      6.25797000      1.96816000
  C      5.01308000     -0.27299700      3.79490000
  O      5.70472000     -1.00695000      4.58776000
  C     -3.88804000     -2.65813000      3.88604000
  O     -4.66821000     -3.59591000      4.28703000
