#B3LYP/6-31+G(d) OPT FREQ

110, Energy = -12473.26675886 au

0 1
 Ni      0.22016300     -3.46315000     -2.23726000
 Ni     -1.33746000     -0.19083800     -1.17017000
 Ni      0.75651700     -4.20499000      0.29668000
 Ni     -0.52223000      4.60383000     -0.55118100
 Ni     -1.15404000      2.46059000     -1.97801000
 Ni     -3.23176000      0.55231000      0.72086900
 Ni     -1.01547000     -0.91733000      1.38352000
 Ni     -0.15477600      3.94870000      2.32394000
 Ni      0.33904300     -1.12162000     -3.35261000
 Ni      3.30099000     -0.55916700     -0.77586200
 Ni      0.85558300     -1.62092000     -0.55629400
 Ni      2.70678000     -2.50962000     -2.79096000
 Ni      3.32058000      2.12377000     -1.86640000
 Ni      2.03550000     -0.48328500      4.17411000
 Ni      1.39562000      0.19440300      1.22428000
 Ni      2.59173000      0.03444320     -3.24569000
 Ni      1.32946000      3.75107000     -2.34492000
 Ni     -2.07622000     -2.44301000     -3.19959000
 Ni      3.61276000     -1.09726000      1.88521000
 Ni     -1.56237000     -2.74019000     -0.37002100
 Ni      3.65654000      1.42799000      0.98951800
 Ni      1.02453000      0.92452100     -1.30577000
 Ni     -1.83093000      0.40606500     -3.55431000
 Ni     -3.63193000     -1.35799000     -1.03049000
 Ni      2.14808000      2.24547000      2.93778000
 Ni     -0.28832500      0.86031600      3.13497000
 Ni      3.11166000     -3.13855000     -0.14749200
 Ni     -1.18277000     -3.42489000      2.36711000
 Ni     -2.88258000      3.27118000     -0.17208200
 Ni      1.65035000      3.06659000      0.34444400
 Ni     -2.54034000      2.48992000      2.37204000
 Ni     -2.74548000     -0.26760900      3.38731000
 Ni      0.53957200      1.69975000     -3.70672000
 Ni     -0.72418500      1.75170000      0.56330300
 Ni     -3.39862000     -2.25419000      1.77365000
 Ni     -0.54852400     -1.68336000      4.25140000
 Ni     -3.80681000      1.22423000     -1.66079000
 Ni      1.23909000     -2.40113000      2.12669000
  C      1.65592000     -2.58305000      4.69883000
  O      2.40805000     -3.04237000      5.63956000
  C      2.34448000     -1.88218000     -4.89643000
  O      2.66675000     -1.42486000     -6.06181000
  C     -3.51258000     -2.30871000      5.13819000
  O     -4.13558000     -3.01010000      6.05961000
  C     -1.50284000     -2.63980000     -5.05095000
  O     -2.16535000     -3.27796000     -5.97232000
  C      2.45366000      5.01065000     -1.04766000
  O      3.37188000      5.78415000     -1.51522000
  C     -3.74332000     -4.08078000      3.05526000
  O     -4.05263000     -4.69626000      4.18117000
  C      1.02358000      5.40233000      2.47328000
  O      1.62887000      6.00428000      3.46178000
  C      2.30015000     -3.34814000     -4.54847000
  O      2.42073000     -4.40684000     -5.26027000
  C     -1.67976000      5.00290000      2.88612000
  O     -1.86635000      6.22118000      3.25832000
  C      4.61110000     -2.30968000     -2.75669000
  O      5.49190000     -2.73752000     -3.59331000
  C      5.00719000     -2.13047000     -0.18730400
  O      6.19045000     -2.41383000      0.24210900
  C     -2.65438000      4.94422000     -1.40042000
  O     -3.50698000      5.91228000     -1.46451000
  C      0.80095600     -3.89341000      4.43320000
  O      0.34779000     -4.66975000      5.34178000
  C      1.00597000     -4.38525000      2.95242000
  O      1.70292000     -5.44933000      3.16056000
  C      0.98134100      6.33850000      1.20512000
  O      0.70651400      7.53998000      1.68898000
  C     -4.55819000      2.61295000      1.49441000
  O     -5.80686000      2.90168000      1.84830000
  C      0.35232800      6.21770000     -0.22730300
  O      0.90296500      7.20188000     -0.84403300
  C      5.32885000     -1.53303000     -1.64740000
  O      6.38710000     -0.84037300     -1.88920000
  C     -0.67990100      4.09759000     -3.30070000
  O     -0.80944000      4.41953000     -4.54673000
  C     -2.87761000     -4.25108000     -2.83964000
  O     -3.71646000     -5.00686000     -3.44757000
  C      2.74006000      3.62032000     -3.95067000
  O      2.72274000      4.25477000     -5.07439000
  C     -1.58542000      5.23317000     -2.53236000
  O     -1.50234000      6.36433000     -3.11549000
  C      4.03945000      0.08112100      3.99368000
  O      5.02851000      0.21163700      4.83436000
  C      2.28172000      5.38638000      0.44654000
  O      3.12486000      5.96391000      1.21500000
  C     -0.19254600     -2.03016000     -5.21243000
  O      0.35316100     -2.17046000     -6.37469000
  C     -0.10964700     -0.02477770      5.65188000
  O     -0.86111800      0.34317000      6.63714000
  C      2.50238000     -5.08692000     -0.93090900
  O      3.04776000     -6.24181000     -1.23749000
  C      3.96562000      2.89204000     -3.54447000
  O      5.09843000      2.82176000     -4.15311000
  C     -5.81928000      1.59695000     -1.43332000
  O     -6.83844000      2.12659000     -2.01575000
  C      3.58958000      3.83251000      2.68425000
  O      3.98609000      4.84393000      3.35137000
  C     -3.58150000     -0.77768600      5.18624000
  O     -4.36329000     -0.46647100      6.17185000
  C      1.36158000      0.21428300      5.82099000
  O      2.06002000      0.68067900      6.79503000
  C     -3.46812000     -4.54337000      1.60933000
  O     -3.93623000     -5.61113000      1.06703000
  C     -5.68190000      0.89906800     -0.20240100
  O     -6.56186000      0.48784300      0.63830500
  C     -1.99329000     -2.80855000      4.82552000
  O     -1.95354000     -3.82203000      5.61058000
  C     -4.30915000     -2.42770000      3.60439000
  O     -5.59438000     -2.42945000      3.83565000

