110
Energy = -12242.08856066 au
 Ni      0.12254700     -3.49056000     -2.57374000
 Ni     -1.35601000     -0.20746600     -1.09111000
 Ni      0.56730500     -4.48544000      0.38947300
 Ni     -0.39766500      4.38599000      0.00695978
 Ni     -1.07039000      2.27506000     -1.91891000
 Ni     -3.37073000      0.48095300      0.91953800
 Ni     -0.96423800     -0.91420700      1.45886000
 Ni     -0.10202000      3.50389000      2.50061000
 Ni      0.28697500     -0.90280300     -2.96274000
 Ni      3.39486000     -0.48441700     -0.51920600
 Ni      0.82816000     -1.69827000     -0.47297200
 Ni      2.37364000     -2.44736000     -2.58169000
 Ni      3.65664000      2.13546000     -1.24656000
 Ni      1.95074000     -0.64043300      4.14790000
 Ni      1.49503000      0.22439300      1.31951000
 Ni      2.64141000      0.18571000     -3.06805000
 Ni      1.37970000      3.46160000     -1.95901000
 Ni     -2.02539000     -2.05106000     -2.86686000
 Ni      3.83696000     -1.16002000      2.10542000
 Ni     -1.56251000     -2.76008000     -0.27338100
 Ni      3.97279000      1.56995000      1.26201000
 Ni      1.05062000      0.91257500     -1.21302000
 Ni     -1.89675000      0.41192900     -3.77202000
 Ni     -3.68899000     -1.35011000     -0.97362600
 Ni      2.01239000      2.25644000      3.09690000
 Ni     -0.35788800      0.90610700      3.33623000
 Ni      2.97776000     -3.18719000      0.31595400
 Ni     -1.20753000     -3.46308000      2.50152000
 Ni     -2.75706000      2.96299000      0.00989577
 Ni      1.89206000      3.06293000      0.54033200
 Ni     -2.43088000      2.37722000      2.75924000
 Ni     -2.74513000     -0.47865600      3.41933000
 Ni      0.46546100      1.66547000     -3.87357000
 Ni     -0.68115500      1.63344000      0.68079500
 Ni     -3.61684000     -2.06009000      1.74915000
 Ni     -0.39406400     -1.61955000      4.08831000
 Ni     -3.46240000      1.12143000     -1.80327000
 Ni      1.38851000     -2.52541000      2.28883000
  C      5.72986000      1.87858000     -0.87961600
  O      6.91171000      2.37142000     -0.94594300
  C     -0.94914600      0.88573600      5.48496000
  O     -2.02129000      1.27665000      6.07160000
  C      1.20145000     -3.74049000      4.19203000
  O      1.83167000     -4.45114000      5.05502000
  C      1.80181000     -3.33207000     -4.52757000
  O      2.56285000     -3.50612000     -5.55603000
  C     -0.56941900     -0.57815700      6.14095000
  O     -1.33605000     -0.86607800      7.13931000
  C      0.93905300     -0.87497400      6.06064000
  O      1.40987000     -0.88382500      7.25494000
  C      1.61670000     -6.00223000     -0.95949600
  O      1.97456000     -7.23626000     -0.97008900
  C      1.15706000      2.81453000      4.77478000
  O      1.47724000      3.75403000      5.60375000
  C     -2.77084000      3.18372000      4.52441000
  O     -3.70143000      3.43968000      5.37860000
  C      0.42979200     -3.80016000     -4.56794000
  O     -0.24920000     -4.22420000     -5.57538000
  C      0.01860850     -5.76314000      2.91891000
  O      0.20902800     -6.66282000      3.81873000
  C      0.96683000     -5.97264000      1.65157000
  O      0.94212800     -7.19987000      1.26624000
  C      5.75258000     -0.56383200      0.39058400
  O      6.54011000     -1.58507000      0.34279400
  C     -5.33317000     -0.91035400      2.22080000
  O     -6.35593000     -1.23914000      2.93505000
  C      0.41693800      1.75633000      5.63493000
  O      0.74708700      1.52521000      6.84808000
  C      3.45856000      0.32217000      6.09575000
  O      3.40348000      0.71852300      7.32017000
  C      5.17195000     -0.38470700      3.24782000
  O      6.00757000     -0.84400000      4.10808000
  C     -0.64307000      3.47248000     -4.64427000
  O     -0.83844700      4.04787000     -5.76318000
  C     -1.37326000      3.49469000      4.68561000
  O     -0.93360600      3.77028000      5.86305000
  C     -0.16799100     -4.45380000      3.95650000
  O     -0.81552900     -4.74881000      5.05088000
  C     -3.75722000     -1.93397000      4.38707000
  O     -4.67107000     -1.84609000      5.29520000
  C     -3.95168000     -0.04191210     -4.75964000
  O     -4.51024000     -0.04125560     -5.92074000
  C     -5.24839000      0.39176200      1.51900000
  O     -6.26070000      1.18393000      1.42802000
  C      5.63891000      0.98893000      2.78151000
  O      6.11227000      1.97845000      3.48284000
  C     -3.18959000     -3.26339000      3.99781000
  O     -3.40507000     -4.35401000      4.63039000
  C      2.59389000     -5.57807000      1.91475000
  O      2.69210000     -6.26332000      2.98968000
  C      3.20985000      4.45668000     -1.17578000
  O      3.82137000      5.63496000     -1.11647000
  C      3.19771000     -2.10736000      4.38366000
  O      3.72926000     -2.41835000      5.51996000
  C      1.55778000      5.24256000      0.95875800
  O      2.34101000      6.29168000      1.02107000
  C     -3.86624000     -4.26054000      0.97040200
  O     -4.84119000     -5.09956000      0.97632300
  C     -1.41842000      5.80121000      1.36161000
  O     -1.86976000      6.98553000      1.33413000
  C      3.35300000     -3.22755000      3.31365000
  O      3.83976000     -4.36195000      3.67638000
  C      3.62187000      3.65957000      1.76299000
  O      4.33467000      4.82007000      1.88444000
  C      3.58414000     -4.85608000      1.10866000
  O      4.78969000     -5.07700000      1.51057000
  C      6.32137000      0.56168800      1.39126000
  O      7.50735000      1.00930000      1.16951000
  C      5.70269000      0.33892400     -1.00744000
  O      6.36684000     -0.24597900     -1.95419000
