110
Energy = -12050.66877790 au
 Ni      0.00733971     -3.77601000     -2.39256000
 Ni     -1.35510000     -0.28178000     -1.22498000
 Ni      0.68387900     -4.53924000      0.35353500
 Ni     -0.58991400      4.61848000     -0.30820400
 Ni     -1.14554000      2.37362000     -1.94837000
 Ni     -3.05421000      0.46919200      0.69959000
 Ni     -0.98384800     -0.89487600      1.30534000
 Ni     -0.11767900      3.84980000      2.29841000
 Ni      0.32519200     -1.16277000     -3.23429000
 Ni      3.27684000     -0.63592600     -0.69746100
 Ni      0.77562200     -1.74010000     -0.55270500
 Ni      2.50650000     -2.62443000     -2.67018000
 Ni      3.43412000      1.88685000     -1.47625000
 Ni      1.91298000     -0.45197800      3.73363000
 Ni      1.40194000      0.23256100      1.21663000
 Ni      2.56201000     -0.00321764     -3.35072000
 Ni      1.24570000      3.62508000     -1.87652000
 Ni     -2.23693000     -2.31834000     -2.95541000
 Ni      3.73690000     -1.27582000      1.69742000
 Ni     -1.83056000     -3.02473000     -0.49659200
 Ni      3.75792000      1.31649000      0.99916300
 Ni      0.99412000      0.88051400     -1.31704000
 Ni     -1.95602000      0.25852900     -3.88652000
 Ni     -3.73665000     -1.51531000     -1.00473000
 Ni      2.09061000      2.39387000      3.09896000
 Ni     -0.28586600      1.19347000      3.22059000
 Ni      3.14105000     -3.29014000      0.22852100
 Ni     -1.32682000     -3.47043000      1.94870000
 Ni     -2.72092000      3.09502000     -0.15958000
 Ni      1.69257000      2.97495000      0.51421500
 Ni     -2.34618000      2.54725000      2.39667000
 Ni     -2.98770000     -0.20712700      3.30993000
 Ni      0.56902100      1.30975000     -3.98372000
 Ni     -0.66626100      1.69442000      0.56650400
 Ni     -3.61375000     -2.13268000      1.52890000
 Ni     -0.56851300     -1.49935000      3.71734000
 Ni     -3.46651000      1.09002000     -1.81435000
 Ni      1.29485000     -2.54206000      2.09550000
  C     -2.43980000      4.99228000      2.54222000
  O     -3.19942000      5.65847000      3.36737000
  C      2.00470000     -5.23338000      2.26178000
  O      1.73851000     -6.48378000      2.48447000
  C     -5.46874000     -1.20835000      1.45771000
  O     -6.64860000     -1.39771000      0.96391600
  C      2.73140000      4.32930000      2.59150000
  O      3.71064000      5.08194000      2.90007000
  C     -5.49755000     -0.24493300      2.58547000
  O     -6.66373000      0.14256200      2.97282000
  C     -1.73277000      5.69128000      1.49134000
  O     -1.87959000      6.95502000      1.37267000
  C      1.66259000      5.50702000     -0.98300400
  O      2.00906000      6.70330000     -1.24103000
  C      2.52163000      5.20010000      0.31964400
  O      3.79311000      5.52962000      0.41948300
  C     -3.28071000     -4.48212000      1.09016000
  O     -3.94051000     -5.60987000      1.08618000
  C      1.19639000      0.03605740     -5.48496000
  O      1.08081000      0.15292600     -6.76279000
  C     -2.36860000      4.66604000     -2.28962000
  O     -3.17899000      4.99695000     -3.22468000
  C      2.06304000     -5.90291000     -0.64137100
  O      2.20076000     -7.14988000     -0.82180700
  C     -3.82835000     -2.34649000      4.00438000
  O     -4.59536000     -2.80449000      4.87912000
  C     -0.22129500      2.70767000      4.77233000
  O     -0.76155000      3.41621000      5.69632000
  C      2.21435000      2.34262000      5.22813000
  O      2.71480000      2.74014000      6.34202000
  C      4.68767000     -2.60291000     -2.35943000
  O      5.71399000     -2.83204000     -3.21462000
  C     -3.05083000     -4.45188000     -2.93153000
  O     -3.91535000     -4.81205000     -3.80091000
  C      5.31464000     -2.80870000     -0.80392600
  O      6.29040000     -3.65171000     -0.82816900
  C     -1.58446000     -4.96689000     -2.75944000
  O     -1.87635000     -6.21582000     -2.83006000
  C     -4.85310000      0.43522200      4.02016000
  O     -5.57378000      0.89787600      4.95320000
  C      1.84543000      5.34855000      1.75925000
  O      1.57384000      6.58896000      1.84539000
  C      1.97955000     -1.32677000     -5.50835000
  O      2.94428000     -1.54098000     -6.32924000
  C     -1.50419000      5.70472000     -1.69136000
  O     -1.51921000      6.91321000     -2.07974000
  C     -3.48259000     -4.00571000     -1.44978000
  O     -4.22617000     -5.03790000     -1.27154000
  C      3.34410000     -2.27277000      4.29754000
  O      3.68575000     -3.00573000      5.27357000
  C      0.85908800      2.01226000      5.63629000
  O      0.54392800      1.36069000      6.71308000
  C      1.60087000     -4.10946000      3.23771000
  O      2.02193000     -4.62418000      4.32735000
  C     -1.28615000     -0.94208400     -5.66815000
  O     -1.43305000     -0.94687200     -6.92975000
  C      5.51350000      0.89475000     -1.06697000
  O      6.66033000      0.89038500     -1.50686000
  C     -0.02964070      5.82723000      3.63706000
  O     -0.84011100      6.81788000      3.78746000
  C      5.32183000     -1.68279000      0.31986000
  O      6.56071000     -1.42623000      0.58500700
  C      2.25799000     -4.76961000     -2.84778000
  O      2.91957000     -5.85381000     -3.29548000
  C      1.39936000     -2.50398000     -4.68137000
  O      1.26255000     -3.34574000     -5.62941000
  C      3.25924000     -4.70568000      1.45254000
  O      4.14066000     -5.39421000      2.07278000
  C     -3.91895000     -0.79479200     -4.47264000
  O     -4.74516000     -0.77712600     -5.44567000
  C     -1.21846000     -5.90811000     -0.00259562
  O     -1.47330000     -7.15881000     -0.16524500
