110
Energy = -12248.13884539 au
 Ni      0.36548800     -3.56769000     -2.48813000
 Ni     -1.31733000     -0.23172300     -1.20023000
 Ni      0.74880200     -4.42497000      0.13113400
 Ni     -0.64265900      4.40229000     -0.26803600
 Ni     -1.14115000      2.41998000     -1.99101000
 Ni     -2.99223000      0.51494700      0.67889300
 Ni     -0.89282000     -0.87176300      1.34931000
 Ni      0.07667160      3.59882000      2.52353000
 Ni      0.37246700     -1.11226000     -3.35791000
 Ni      3.32872000     -0.59044600     -0.70291000
 Ni      0.82329400     -1.70351000     -0.55747200
 Ni      2.59176000     -2.41241000     -2.70138000
 Ni      3.53422000      1.90644000     -1.49364000
 Ni      1.81624000     -0.19978300      3.86497000
 Ni      1.44005000      0.23282500      1.24330000
 Ni      2.83078000      0.04406440     -3.41506000
 Ni      1.32327000      3.73494000     -1.92624000
 Ni     -2.01604000     -2.06098000     -2.90523000
 Ni      3.86933000     -1.31240000      1.88677000
 Ni     -1.64752000     -2.87565000     -0.44893700
 Ni      3.80864000      1.20682000      1.04133000
 Ni      1.04302000      0.87595200     -1.33729000
 Ni     -1.77334000      0.29924200     -3.81240000
 Ni     -3.85098000     -1.27247000     -1.30346000
 Ni      2.24606000      2.52997000      3.13226000
 Ni     -0.26311600      1.03729000      3.34471000
 Ni      3.19344000     -3.25391000     -0.12015600
 Ni     -1.12791000     -3.43702000      1.99579000
 Ni     -2.76518000      3.17169000     -0.08450100
 Ni      1.70755000      2.86185000      0.41346100
 Ni     -2.32909000      2.34830000      2.69053000
 Ni     -2.68361000     -0.28960200      3.30025000
 Ni      0.53359800      1.38565000     -3.90349000
 Ni     -0.67197700      1.68902000      0.60912100
 Ni     -3.28027000     -2.12177000      1.33146000
 Ni     -0.52053800     -1.79325000      3.85443000
 Ni     -3.50160000      1.04816000     -1.90446000
 Ni      1.32779000     -2.44190000      2.15685000
  C      1.88974000      5.05533000      2.25063000
  O      2.09013000      6.29503000      1.97726000
  C      5.71761000     -0.45527300      0.04910960
  O      6.80280000     -0.83028800     -0.54989900
  C      1.34754000      0.72271700      5.66431000
  O      1.90157000      0.94885900      6.80983000
  C      5.82596000     -0.76123100      1.51497000
  O      6.99259000     -1.02652000      1.99234000
  C     -2.20667000      5.52418000      0.94206100
  O     -2.60097000      6.71056000      1.18674000
  C      2.15509000     -2.30568000     -5.16974000
  O      2.89382000     -3.12846000     -5.81583000
  C      0.40850200     -3.69173000      4.46460000
  O      0.25225900     -4.59132000      5.37698000
  C     -2.49754000      2.62515000      4.70621000
  O     -3.23944000      2.55014000      5.75269000
  C      5.15804000      0.95422000     -3.04054000
  O      6.07724000      1.00559000     -3.93140000
  C      3.98694000     -3.75897000      2.29538000
  O      4.30026000     -4.96941000      2.56345000
  C      4.30515000     -2.80215000      3.38908000
  O      4.80034000     -3.07032000      4.54947000
  C      2.17540000      5.37738000     -0.94883900
  O      2.16994000      6.66285000     -0.92521500
  C     -3.25003000     -4.41121000      0.28349100
  O     -3.87621000     -5.46573000     -0.04614130
  C      2.41214000      3.09286000      5.14555000
  O      3.11847000      3.09634000      6.22257000
  C     -1.39139000      3.57388000      4.53559000
  O     -1.28867000      4.37641000      5.54172000
  C      0.08853190      4.69776000     -3.74101000
  O     -0.09610960      5.83091000     -4.32781000
  C     -4.31469000     -0.75355800     -4.25731000
  O     -4.68319000     -0.89405500     -5.46594000
  C     -3.11152000     -1.92873000      4.79477000
  O     -3.96172000     -2.30175000      5.65572000
  C     -0.19961900     -0.10319900     -5.49070000
  O     -0.05740510     -0.43166200     -6.77752000
  C      1.15645000     -5.71734000      1.99989000
  O      1.80473000     -6.76939000      2.35468000
  C      1.95166000     -5.23556000     -2.55509000
  O      2.07196000     -5.95138000     -3.61570000
  C      1.20172000      3.79583000      4.94140000
  O      0.82881600      4.56967000      5.90314000
  C     -5.15337000     -0.82195200     -3.07455000
  O     -6.41785000     -0.91328500     -3.31138000
  C      5.26376000     -2.32625000     -2.34011000
  O      6.49694000     -1.95966000     -2.48748000
  C      2.45617000     -0.78370600     -5.19513000
  O      2.69215000     -0.59803300     -6.44180000
  C      0.04226090      1.28576000      5.39559000
  O     -0.59027600      1.85026000      6.37141000
  C     -2.02117000      4.65169000     -2.17083000
  O     -2.42472000      5.55736000     -3.01029000
  C      4.60324000     -2.17279000     -3.67622000
  O      5.41609000     -2.10468000     -4.66580000
  C      0.68928600     -2.73375000     -4.67682000
  O      0.25082300     -3.18461000     -5.80426000
  C      3.12567000     -5.15402000     -1.37295000
  O      4.25714000     -5.76371000     -1.42823000
  C      5.59039000      0.97805600     -1.61324000
  O      6.81984000      1.25644000     -1.34137000
  C      1.71395000     -3.67263000      3.79506000
  O      2.63630000     -4.41917000      4.30069000
  C      2.94146000      4.31054000      2.95954000
  O      3.97437000      4.85352000      3.50628000
  C      1.70714000     -5.95240000     -1.07628000
  O      1.59278000     -7.20903000     -0.82347100
  C      3.34326000      4.55465000     -0.54763200
  O      4.44296000      5.14225000     -0.24484800
  C      4.87349000     -3.06773000     -1.05354000
  O      5.98209000     -3.58772000     -0.64246400
