#B3LYP/6-31+G(d) OPT FREQ

110, Energy = -12367.58220802 au

0 1
 Ni      0.20171300     -3.46749000     -2.19092000
 Ni     -1.37549000     -0.24541400     -1.21298000
 Ni      0.60817500     -4.44179000      0.56538600
 Ni     -0.76293100      4.38907000     -0.22466400
 Ni     -1.23933000      2.41976000     -2.16852000
 Ni     -3.21650000      0.59983600      0.82865100
 Ni     -1.00781000     -0.90840300      1.42451000
 Ni     -0.28528200      3.68213000      2.53575000
 Ni      0.40602200     -1.09581000     -3.43113000
 Ni      3.34185000     -0.62140900     -0.84762100
 Ni      0.81537200     -1.66074000     -0.53736200
 Ni      2.74105000     -2.44884000     -2.68122000
 Ni      3.19427000      1.94484000     -1.48935000
 Ni      1.74444000     -0.30678700      4.19419000
 Ni      1.34991000      0.18043700      1.24500000
 Ni      2.72236000     -0.03897850     -3.46055000
 Ni      0.92399700      3.52671000     -2.28997000
 Ni     -2.00052000     -2.26178000     -3.11023000
 Ni      3.59041000     -1.21337000      1.65502000
 Ni     -1.67599000     -2.82897000     -0.38199700
 Ni      3.64176000      1.34280000      1.07731000
 Ni      0.93189000      0.83161200     -1.41921000
 Ni     -1.68800000      0.28520500     -3.77741000
 Ni     -3.68412000     -1.53237000     -1.09768000
 Ni      1.86434000      2.04650000      3.13761000
 Ni     -0.45796200      1.05137000      3.38046000
 Ni      3.05197000     -3.08400000     -0.01350100
 Ni     -1.23379000     -3.48365000      2.47047000
 Ni     -3.33009000      3.12354000     -0.16865900
 Ni      1.46173000      2.72550000      0.43426000
 Ni     -2.62137000      2.58096000      2.60501000
 Ni     -2.83434000      0.02634840      3.42984000
 Ni      0.54313500      1.49093000     -4.05602000
 Ni     -0.84173800      1.70197000      0.58059100
 Ni     -3.49836000     -2.13701000      1.78403000
 Ni     -0.70712500     -1.46305000      4.42460000
 Ni     -3.58386000      1.18330000     -1.69698000
 Ni      1.14064000     -2.46368000      2.19001000
  C     -3.35721000     -3.54623000      3.51005000
  O     -4.33823000     -3.90644000      4.25015000
  C     -1.83591000      4.35173000      4.24213000
  O     -2.15966000      5.08267000      5.23970000
  C      4.92479000     -4.28523000     -0.61005800
  O      5.87763000     -5.13885000     -0.25731900
  C      1.53050000     -5.95344000     -0.97589500
  O      1.94429000     -7.17321000     -0.92305500
  C      0.17524100     -1.38612000      6.27757000
  O     -0.10918200     -1.73946000      7.48256000
  C     -2.16814000     -4.04927000      4.43081000
  O     -2.01921000     -5.25008000      4.90660000
  C     -2.60350000      5.07146000      3.11424000
  O     -3.82128000      5.47575000      3.17097000
  C     -1.66470000      0.53309100      5.18781000
  O     -1.49386000      0.51211500      6.47790000
  C     -3.49090000     -3.74276000     -1.90028000
  O     -4.21190000     -4.81957000     -2.09593000
  C     -1.51886000      5.89828000     -1.39942000
  O     -1.50072000      7.11666000     -1.79317000
  C     -1.35368000     -2.19313000     -5.07162000
  O     -1.48788000     -3.08326000     -5.99232000
  C      1.71351000      0.54050100     -5.63136000
  O      1.61595000      0.59403600     -6.91048000
  C     -0.84328200     -0.80462500     -5.49446000
  O     -0.48717300     -0.54260800     -6.70553000
  C      2.58344000     -0.71637500     -5.43417000
  O      3.64115000     -1.11899000     -6.07905000
  C     -5.28967000      2.23320000     -0.14643900
  O     -6.48875000      2.32811000     -0.60295600
  C      1.16459000      2.36124000      4.98382000
  O      1.66699000      2.42254000      6.17508000
  C      1.26608000     -4.18182000      3.34482000
  O      1.78242000     -4.47256000      4.48738000
  C      0.81201300     -5.27344000      2.38996000
  O      0.92371700     -6.52089000      2.69670000
  C     -4.92738000     -0.39717100      2.69837000
  O     -6.14580000     -0.18911300      3.14257000
  C      3.85884000      0.23325600      4.81011000
  O      4.48075000      0.10776200      5.92740000
  C      4.63203000     -1.60512000     -2.45373000
  O      5.70141000     -1.33827000     -3.11945000
  C      1.82463000     -2.18934000     -5.28098000
  O      1.19530000     -2.38653000     -6.38084000
  C     -1.44012000      5.42309000      2.13930000
  O     -1.46874000      6.69988000      2.26000000
  C     -4.06954000     -4.27788000      1.04283000
  O     -5.11451000     -5.02858000      1.09769000
  C     -1.72088000     -2.81342000      5.24759000
  O     -2.40021000     -2.80361000      6.33744000
  C     -2.52129000      1.82396000      4.84955000
  O     -2.87265000      2.57992000      5.82483000
  C      5.34691000     -2.65857000     -1.42277000
  O      6.23858000     -3.37591000     -2.04912000
  C     -0.05774820      3.27008000      4.80939000
  O     -0.37222900      3.89097000      5.89903000
  C     -0.90437500      3.51228000     -4.27855000
  O     -1.59896000      3.80462000     -5.32107000
  C     -0.11285900      4.57833000     -3.56683000
  O     -0.24160900      5.84227000     -3.77097000
  C      5.18033000     -1.78741000     -0.07456200
  O      6.43653000     -1.65969000      0.15243400
  C     -2.61819000      5.21149000     -2.14990000
  O     -2.75687000      5.43070000     -3.42040000
  C     -4.92356000      2.46024000      1.32926000
  O     -5.83521000      2.72591000      2.19380000
  C      2.45390000     -3.26156000     -4.40483000
  O      2.91098000     -4.12035000     -5.24512000
  C     -3.74239000      4.45544000     -1.44168000
  O     -4.80749000      5.05790000     -1.83703000
  C      1.17535000     -0.31508600      6.06262000
  O      1.46555000      0.43198300      7.07834000

