110
Energy = -12122.52566671 au
 Ni      0.17794100     -3.45796000     -2.47426000
 Ni     -1.41241000     -0.13643400     -1.16032000
 Ni      0.62503300     -4.52456000      0.28184600
 Ni     -0.40348200      4.71844000     -0.33284700
 Ni     -1.25235000      2.55886000     -2.14539000
 Ni     -3.42705000      0.66088700      0.70032300
 Ni     -0.92936200     -0.82271600      1.34000000
 Ni     -0.26155900      3.81721000      2.58929000
 Ni      0.40816200     -1.03433000     -3.27554000
 Ni      3.32879000     -0.48861800     -0.65204000
 Ni      0.82294900     -1.65713000     -0.51869100
 Ni      2.71729000     -2.37750000     -2.28947000
 Ni      3.48173000      1.94214000     -1.53362000
 Ni      1.68978000     -0.17313500      3.90453000
 Ni      1.43908000      0.32313900      1.23487000
 Ni      2.71009000      0.21565900     -3.38201000
 Ni      1.28831000      3.75954000     -2.42909000
 Ni     -1.93742000     -2.03684000     -2.94708000
 Ni      3.55545000     -1.33033000      1.99077000
 Ni     -1.55036000     -2.69650000     -0.39537800
 Ni      3.93896000      1.56306000      1.15311000
 Ni      0.95743700      0.98856700     -1.36197000
 Ni     -1.78761000      0.67098900     -3.64598000
 Ni     -3.95510000     -1.17185000     -0.93109100
 Ni      2.12847000      2.49180000      2.89227000
 Ni     -0.34916900      1.08748000      3.21189000
 Ni      3.13514000     -3.20280000      0.19741800
 Ni     -1.27069000     -3.50630000      2.07479000
 Ni     -3.10659000      3.43015000     -0.01364880
 Ni      1.84664000      3.11071000      0.41840400
 Ni     -2.49802000      2.71244000      2.59096000
 Ni     -2.62413000     -0.16131300      3.19109000
 Ni      0.71381800      1.77139000     -4.12052000
 Ni     -0.76451700      1.82283000      0.58402700
 Ni     -3.45181000     -1.89987000      1.37583000
 Ni     -0.65491200     -1.65247000      3.89683000
 Ni     -3.59377000      1.54326000     -1.82202000
 Ni      1.27874000     -2.35513000      2.02370000
  C     -1.24752000      5.78563000     -1.54511000
  O     -0.99542000      6.92872000     -2.08636000
  C     -0.51494300      2.88155000     -5.16179000
  O     -0.95967400      3.13727000     -6.34095000
  C     -2.94312000     -4.97646000      1.50652000
  O     -3.12427000     -6.24313000      1.60877000
  C     -2.60545000      5.49384000     -2.07642000
  O     -2.95717000      5.73354000     -3.29128000
  C      1.38701000      1.80322000      5.46626000
  O      1.11942000      2.77590000      6.26174000
  C      4.11300000      3.51111000      2.15297000
  O      5.00475000      4.18722000      2.79909000
  C     -2.58197000      4.71496000      2.01203000
  O     -3.22782000      5.79057000      2.56668000
  C     -0.81620500      3.37211000      4.74588000
  O     -0.54957700      4.41490000      5.44390000
  C      3.60225000      4.02033000      0.77075700
  O      4.08150000      5.11157000      0.27303900
  C     -1.17462000      1.83776000      5.20686000
  O     -1.09014000      1.17832000      6.31233000
  C     -3.93568000      3.01296000     -2.96839000
  O     -4.87210000      3.87920000     -3.14172000
  C      5.72904000      0.11856600      0.70681300
  O      6.96862000      0.31315700      0.45835500
  C     -5.33852000     -0.83466200      0.50195000
  O     -6.64920000     -0.71033500      0.59419100
  C      2.19845000     -5.33896000      2.41811000
  O      2.54375000     -5.68614000      3.60931000
  C      1.09068000     -5.93060000      1.65332000
  O      0.64335300     -7.05159000      2.09773000
  C      4.58832000     -2.78110000     -1.57262000
  O      5.81890000     -3.04808000     -2.09230000
  C     -2.77127000      2.89463000     -3.93675000
  O     -2.88687000      3.55844000     -5.03725000
  C      3.50551000     -4.41834000      1.84281000
  O      4.51475000     -5.20450000      1.68486000
  C     -2.46924000      2.71615000      4.79265000
  O     -3.43083000      3.07313000      5.58946000
  C      2.01925000      4.63375000      3.40774000
  O      2.98433000      5.36669000      3.83125000
  C      1.49765000      6.00269000      1.46839000
  O      2.60766000      6.66734000      1.42747000
  C      5.14162000      0.63328400     -1.95200000
  O      6.38281000      0.76372700     -2.14118000
  C      1.50073000     -5.94389000     -1.16462000
  O      1.92632000     -7.13346000     -0.94552200
  C      0.75798300      6.29175000      0.18669900
  O      0.20191800      7.44297000      0.52818200
  C      1.49911000      0.44349200      5.84542000
  O      1.53968000      0.07051210      7.08038000
  C     -2.51216000     -2.57496000      4.73728000
  O     -2.80401000     -3.14384000      5.83036000
  C      1.94130000     -0.33809800     -5.34504000
  O      2.51955000     -0.76954200     -6.45562000
  C      0.97903600      5.70491000      2.86659000
  O      0.43438400      6.81242000      3.29017000
  C      2.62267000      2.84245000     -4.22725000
  O      3.14741000      3.54229000     -5.26659000
  C      0.08553590     -2.85014000     -4.49038000
  O      0.31036200     -3.33945000     -5.74632000
  C      0.93699600      4.64510000     -4.12866000
  O      1.18625000      5.59177000     -4.95699000
  C     -3.52672000      4.96647000     -1.01065000
  O     -4.59664000      5.62120000     -1.29431000
  C     -4.94201000      1.97588000      0.40411800
  O     -6.29306000      2.01802000      0.88066000
  C     -0.46350900      4.28416000     -4.61117000
  O     -1.30436000      5.25030000     -4.53020000
  C      1.48655000      5.68430000     -1.07546000
  O      2.34303000      6.63128000     -1.20429000
  C      3.50424000     -3.16353000      2.85393000
  O      3.86045000     -3.57400000      4.02121000
