#B3LYP/6-31+G(d) OPT FREQ

110, Energy = -11882.58125947 au

0 1
 Ni      0.14616200     -3.68329000     -2.31589000
 Ni     -1.40529000     -0.21345100     -1.18345000
 Ni      0.64639600     -4.40258000      0.31234800
 Ni     -0.34776900      4.35166000     -0.31429600
 Ni     -1.12286000      2.47610000     -2.06341000
 Ni     -3.16236000      0.39418200      0.74885700
 Ni     -0.97038100     -0.95055800      1.35912000
 Ni      0.06337490      3.72808000      2.12737000
 Ni      0.35588500     -1.06343000     -3.16241000
 Ni      3.19164000     -0.66806300     -0.69006700
 Ni      0.80500400     -1.71245000     -0.53851000
 Ni      2.74891000     -2.61704000     -2.55400000
 Ni      3.25101000      1.95521000     -1.43294000
 Ni      1.87294000     -0.55415300      3.70923000
 Ni      1.44516000      0.19346100      1.18373000
 Ni      2.67497000      0.02931160     -3.19523000
 Ni      1.26240000      3.55558000     -2.20447000
 Ni     -2.19238000     -2.05924000     -2.94436000
 Ni      3.71577000     -1.27726000      1.86220000
 Ni     -1.58750000     -2.82417000     -0.42217200
 Ni      3.70715000      1.50281000      1.10913000
 Ni      0.95620500      0.89474900     -1.32680000
 Ni     -2.02524000      0.36138100     -3.73242000
 Ni     -3.89429000     -1.23365000     -1.04711000
 Ni      2.07553000      2.19306000      2.99765000
 Ni     -0.24794700      0.93254500      3.03804000
 Ni      3.13237000     -3.22896000      0.25004500
 Ni     -1.24784000     -3.55680000      2.16471000
 Ni     -2.77932000      3.00818000     -0.13411600
 Ni      1.74241000      2.89003000      0.41681400
 Ni     -2.36308000      2.30911000      2.36834000
 Ni     -2.97338000     -0.32853300      3.14859000
 Ni      0.71605700      1.59301000     -4.07850000
 Ni     -0.68822100      1.65183000      0.51721200
 Ni     -3.56714000     -2.21211000      1.51387000
 Ni     -0.51749200     -1.78876000      3.96762000
 Ni     -3.73861000      1.17209000     -1.66894000
 Ni      1.26350000     -2.44255000      2.04039000
  C      1.79673000     -5.62160000     -1.56815000
  O      1.76480000     -6.98757000     -1.51579000
  C      1.77372000      5.41203000     -0.87812300
  O      2.48347000      6.55282000     -0.82925500
  C      2.84635000     -2.75603000      3.85913000
  O      3.15552000     -3.30596000      4.99718000
  C      1.51780000      1.66112000      5.30935000
  O      1.48799000      2.18383000      6.46617000
  C      3.01875000     -5.03217000     -2.57196000
  O      3.10993000     -5.99340000     -3.45132000
  C     -4.42312000     -4.08979000      1.12895000
  O     -5.52954000     -4.63417000      0.76730500
  C     -4.19465000     -1.31351000     -4.01193000
  O     -5.04623000     -1.64473000     -4.89409000
  C      3.50266000      3.96492000      1.49903000
  O      4.67085000      4.50214000      1.54579000
  C      4.94698000     -2.23860000     -1.38756000
  O      6.04622000     -2.47465000     -2.04142000
  C      0.53754800     -2.96362000      5.17791000
  O      0.98392600     -3.05386000      6.38404000
  C      0.49198500     -4.16286000      4.30389000
  O      0.69495800     -5.19449000      5.06075000
  C     -1.76525000      5.09174000     -2.18426000
  O     -2.45848000      6.16376000     -2.42639000
  C     -5.00581000     -0.01014560      3.12688000
  O     -5.97492000      0.43164100      3.85039000
  C      4.24969000     -4.13913000     -2.60899000
  O      5.41675000     -4.45899000     -2.99780000
  C     -5.37167000     -0.78450000      1.91653000
  O     -6.63141000     -0.87200700      1.66371000
  C      1.89558000      2.62621000     -5.51714000
  O      2.34499000      2.56874000     -6.71740000
  C     -1.36463000      4.31002000     -3.35673000
  O     -1.50125000      4.78058000     -4.53766000
  C      2.50499000      5.06530000      1.99011000
  O      3.10645000      5.96863000      2.67241000
  C      3.21053000     -3.88557000      2.96529000
  O      3.68062000     -5.13323000      3.23267000
  C      5.69715000     -1.54121000      0.13570900
  O      6.92776000     -1.76295000     -0.20396100
  C      2.82802000     -5.82420000      0.71839000
  O      3.27645000     -6.72178000      1.52563000
  C      4.54531000     -1.80575000     -4.09083000
  O      5.75821000     -2.11967000     -4.38573000
  C      4.28507000     -4.26250000      1.99255000
  O      5.50079000     -4.69879000      1.92243000
  C     -5.77437000      0.34969800     -0.67454700
  O     -6.96324000     -0.09221310     -0.43249500
  C     -2.99517000     -2.77656000      4.18382000
  O     -3.65941000     -3.38508000      5.09309000
  C     -3.73655000      1.07837000     -5.21405000
  O     -4.63060000      0.59045000     -6.00176000
  C      1.24548000     -3.10400000     -4.51541000
  O      1.43010000     -3.57623000     -5.71647000
  C     -5.69159000      1.78482000     -0.88847600
  O     -6.64155000      2.63630000     -0.76196500
  C     -3.24513000     -4.80457000      1.51034000
  O     -3.27381000     -6.08459000      1.54449000
  C      0.68883200     -5.39569000      2.55706000
  O      1.64049000     -5.86065000      3.33262000
  C     -1.44097000     -5.31801000     -1.40984000
  O     -2.03445000     -6.39401000     -1.76275000
  C      0.20801900     -6.46349000      1.68683000
  O      0.31862300     -7.74453000      1.83409000
  C      5.84999000     -1.04585000      1.56596000
  O      7.03676000     -0.88448700      2.01528000
  C      2.12932000      3.63146000     -4.50982000
  O      2.79965000      4.64838000     -4.92016000
  C      0.76527700     -0.12777700     -5.52776000
  O      0.88707800     -0.27672400     -6.92453000
  C      1.09074000      5.51192000      1.53068000
  O      0.97584700      6.79141000      1.57908000

