#B3LYP/6-31+G(d) OPT FREQ

110, Energy = -12090.06909239 au

0 1
 Ni      0.20277300     -3.49159000     -2.19423000
 Ni     -1.36332000     -0.22921800     -1.15795000
 Ni      0.61077700     -4.30810000      0.12643000
 Ni     -0.66206900      4.26165000     -0.32699100
 Ni     -1.18022000      2.39645000     -1.98280000
 Ni     -3.33737000      0.44156300      0.75276900
 Ni     -0.98905800     -0.91219200      1.35073000
 Ni     -0.09072590      3.41690000      2.42960000
 Ni      0.40693000     -0.89139500     -3.19962000
 Ni      3.40070000     -0.50926800     -0.71101300
 Ni      0.74463600     -1.62201000     -0.52430000
 Ni      2.62577000     -2.44645000     -2.37883000
 Ni      3.52282000      2.17273000     -1.47472000
 Ni      1.96149000     -0.26354800      4.06857000
 Ni      1.40548000      0.24661400      1.25133000
 Ni      2.75849000      0.38351900     -3.38751000
 Ni      1.18422000      3.42159000     -2.26688000
 Ni     -1.99449000     -2.04020000     -2.87191000
 Ni      3.59457000     -1.06034000      1.92100000
 Ni     -1.74675000     -2.88836000     -0.39475700
 Ni      3.75775000      1.43435000      1.00851000
 Ni      1.02434000      0.90024500     -1.33742000
 Ni     -1.68495000      0.50625900     -3.78932000
 Ni     -3.72674000     -1.48059000     -1.00710000
 Ni      2.12783000      2.45009000      3.08288000
 Ni     -0.27906300      1.04045000      3.27979000
 Ni      2.83038000     -3.08564000      0.20110500
 Ni     -1.25498000     -3.54736000      2.14831000
 Ni     -2.91753000      3.32368000     -0.00048352
 Ni      1.75159000      2.87706000      0.36443800
 Ni     -2.46509000      2.49747000      2.45007000
 Ni     -2.74174000     -0.17912200      3.10653000
 Ni      0.52211200      1.71331000     -4.08698000
 Ni     -0.74394500      1.63310000      0.57205400
 Ni     -3.45503000     -2.23492000      1.43017000
 Ni     -0.48217800     -1.46505000      4.11903000
 Ni     -3.45624000      1.12912000     -1.77742000
 Ni      1.14309000     -2.39732000      2.06949000
  C     -0.61329500      3.40688000      4.61078000
  O     -1.37334000      3.89009000      5.52856000
  C     -2.44674000     -4.19068000      4.02430000
  O     -3.07250000     -5.14940000      4.61473000
  C      1.12520000     -2.76013000      5.11753000
  O      1.27798000     -3.70981000      5.93958000
  C      3.30462000      2.83779000     -4.39715000
  O      3.02745000      3.90576000     -5.03697000
  C      3.42664000      1.45802000     -4.95940000
  O      4.30213000      1.52161000     -5.89653000
  C     -0.01029010      1.13371000      5.82361000
  O     -0.43408000      1.99160000      6.69020000
  C      2.01408000     -4.33229000      3.07835000
  O      2.97718000     -4.97681000      3.63432000
  C     -5.27499000     -0.02485230      2.29683000
  O     -6.19530000     -0.12851500      3.18359000
  C     -2.83339000      5.59746000      0.04082620
  O     -3.44597000      6.61954000      0.48569100
  C     -4.59315000     -4.00736000      1.62444000
  O     -5.70859000     -4.61939000      1.50686000
  C      1.69129000     -5.97100000     -0.86220200
  O      1.90221000     -7.23002000     -0.69871700
  C      3.50066000      4.21279000      0.13533500
  O      3.96039000      5.28831000     -0.39791800
  C     -4.15804000      4.25033000      1.98918000
  O     -4.61392000      5.35813000      2.40339000
  C      5.89192000     -0.85176500      2.62176000
  O      6.63996000     -0.81249500      3.73207000
  C     -3.62449000     -4.14841000     -0.51684500
  O     -4.44493000     -4.92246000     -1.12888000
  C      3.96083000      4.23394000      1.61316000
  O      5.12350000      4.77539000      1.78268000
  C     -0.85765000      2.09155000     -5.63601000
  O     -1.37983000      3.15530000     -6.12763000
  C      0.85045600      3.28747000      4.85338000
  O      1.38484000      3.69124000      5.94709000
  C      5.29709000      1.77385000     -2.52953000
  O      6.51874000      1.41206000     -2.43178000
  C      4.12582000     -0.01027110      4.36589000
  O      4.95167000      0.13448100      5.32328000
  C      6.02113000     -1.09843000      0.96295300
  O      7.14248000     -1.74875000      0.90271600
  C      1.43157000      0.69594000      5.64716000
  O      1.86642000      0.73300700      6.85668000
  C     -0.90498100     -0.12684100      5.58960000
  O     -1.28483000     -0.28467600      6.80841000
  C      0.37540000      4.16813000     -4.33474000
  O     -0.05366420      5.13244000     -5.05139000
  C      2.28629000     -5.31488000     -1.98006000
  O      3.03003000     -5.94645000     -2.80702000
  C      0.69182500     -4.72620000      3.36759000
  O      0.46256100     -5.69123000      4.18287000
  C      3.18396000      4.05707000      2.90026000
  O      3.47939000      4.97358000      3.75259000
  C     -1.99775000      4.66231000     -2.25671000
  O     -2.42418000      5.58663000     -3.05656000
  C     -3.59832000     -4.85644000      0.87469100
  O     -3.20280000     -6.03764000      1.18834000
  C      4.60634000      2.84799000     -3.36467000
  O      5.42134000      3.71136000     -3.91761000
  C      4.81301000     -2.00204000     -2.46310000
  O      5.92503000     -2.45640000     -2.83421000
  C      0.68188900     -0.44286900     -5.46205000
  O      1.19176000     -1.19189000     -6.37264000
  C      5.45104000     -0.47089200     -0.30979200
  O      6.43460000     -0.47208400     -1.15374000
  C     -0.29778500      0.64375800     -6.05123000
  O     -0.51684400      0.49702800     -7.32434000
  C      4.32174000     -4.66653000      1.17272000
  O      4.51082000     -5.57715000      2.06472000
  C     -5.52710000      0.38345200      0.95447500
  O     -6.67662000      0.66086000      0.45641100

