110
Energy = -12155.06280255 au
 Ni      0.13201300     -3.43860000     -2.16184000
 Ni     -1.39083000     -0.20766000     -1.14791000
 Ni      0.87509400     -4.65130000      0.39597300
 Ni     -0.51317600      4.35065000     -0.47608400
 Ni     -1.29674000      2.49493000     -2.16872000
 Ni     -3.25511000      0.65081600      0.77868700
 Ni     -0.99448400     -0.94700200      1.39779000
 Ni     -0.29749000      3.82886000      2.46521000
 Ni      0.35474400     -0.96371800     -3.10328000
 Ni      3.25570000     -0.55260700     -0.70936100
 Ni      0.80957500     -1.68526000     -0.45935000
 Ni      2.73837000     -2.43577000     -2.33962000
 Ni      3.42048000      2.20305000     -1.60505000
 Ni      1.78606000     -0.38123000      3.58539000
 Ni      1.37053000      0.29651300      1.17859000
 Ni      2.71255000      0.30540500     -3.50919000
 Ni      1.31123000      3.79039000     -2.33664000
 Ni     -2.11644000     -2.21626000     -2.86494000
 Ni      3.57478000     -1.26072000      1.63553000
 Ni     -1.68636000     -2.84532000     -0.29434300
 Ni      3.87586000      1.47325000      0.97671700
 Ni      0.97455100      0.96611400     -1.35012000
 Ni     -1.84850000      0.52222700     -3.60164000
 Ni     -3.70783000     -1.44471000     -0.92971200
 Ni      1.92382000      2.48411000      3.12642000
 Ni     -0.42672600      1.12480000      3.33712000
 Ni      3.37055000     -3.40634000      0.08885890
 Ni     -1.30259000     -3.67189000      2.51213000
 Ni     -3.01736000      3.09252000     -0.20628600
 Ni      1.75243000      3.05100000      0.44283100
 Ni     -2.54622000      2.68661000      2.64408000
 Ni     -2.65162000     -0.26395600      3.28015000
 Ni      0.54271400      1.62965000     -3.93768000
 Ni     -0.78763300      1.73918000      0.59052200
 Ni     -3.55265000     -2.41289000      1.71873000
 Ni     -0.49203100     -1.69747000      4.10081000
 Ni     -3.73211000      1.25065000     -1.67112000
 Ni      1.17165000     -2.54746000      2.09518000
  C     -3.38321000     -4.00849000     -2.76528000
  O     -3.65855000     -4.85339000     -3.76795000
  C      3.92126000     -4.67067000      1.39568000
  O      5.08570000     -4.95376000      1.87980000
  C      4.71186000     -2.70775000     -2.13850000
  O      5.76949000     -2.98651000     -2.94087000
  C     -2.89303000     -3.73673000      3.55924000
  O     -3.48581000     -4.49236000      4.48852000
  C      1.50298000     -4.05733000      3.60187000
  O      2.71627000     -4.19775000      3.93619000
  C      0.60321800     -5.49794000      3.23289000
  O      1.24277000     -6.53086000      3.55095000
  C      0.67548400     -6.89292000      0.87462800
  O      0.54687700     -7.92509000      1.62141000
  C     -1.09292000     -0.08703760      5.31447000
  O     -1.17340000      0.19811300      6.64251000
  C     -0.38206300      5.32488000     -3.10027000
  O     -0.56095600      6.59216000     -3.28084000
  C      2.71428000     -5.46381000      1.52178000
  O      2.90990000     -6.61659000      2.07185000
  C     -3.91385000     -4.18307000     -0.88803000
  O     -4.40655000     -5.30164000     -1.32178000
  C      3.29334000      4.05382000      2.83460000
  O      3.80425000      5.00045000      3.53192000
  C     -1.41428000      5.48559000      2.46720000
  O     -1.18311000      6.75242000      2.47093000
  C      3.54127000     -4.87258000     -1.16806000
  O      4.29096000     -5.96311000     -1.16522000
  C     -1.55458000      3.05082000     -4.18283000
  O     -2.04317000      4.11785000     -4.74889000
  C      0.65433900      4.71217000     -3.99787000
  O      1.00781000      5.11236000     -5.16248000
  C     -4.99517000      2.14770000      0.93908800
  O     -5.89579000      2.59450000      1.74052000
  C      3.49601000      4.11050000      0.49729900
  O      3.87296000      5.32841000      0.73842300
  C      3.80394000      3.52967000     -3.08701000
  O      4.76477000      3.93545000     -3.85434000
  C      0.25428800     -3.51218000      4.49742000
  O      0.13878700     -4.36312000      5.45443000
  C      1.23664000     -6.46254000     -0.34587200
  O      1.93454000     -7.11870000     -1.21436000
  C     -1.98140000      2.67353000      4.55723000
  O     -2.68798000      2.74134000      5.63225000
  C      1.21525000     -0.26900300     -5.24819000
  O      1.28371000     -0.62763200     -6.50733000
  C      3.30746000      1.75404000     -4.68105000
  O      4.14369000      1.97688000     -5.64106000
  C      5.67367000      0.87268100     -0.17138200
  O      6.92392000      0.79191500      0.03029690
  C      0.71671500      2.95817000      4.73816000
  O      1.24137000      3.25558000      5.87557000
  C      5.02153000     -2.36978000     -0.13428700
  O      6.22727000     -2.57837000     -0.23117200
  C     -0.92875500     -5.44633000      3.22773000
  O     -1.38519000     -6.39455000      3.96970000
  C     -2.70887000      4.81622000      2.58587000
  O     -3.78670000      5.46800000      2.86816000
  C     -0.73159900      3.63901000      4.82536000
  O     -0.93437100      4.72227000      5.48014000
  C     -4.71644000     -2.16424000      3.32211000
  O     -5.43314000     -2.90850000      4.08973000
  C     -2.11757000      4.99918000     -2.16081000
  O     -2.57180000      6.15795000     -2.51195000
  C     -5.40635000      1.37721000     -0.31287000
  O     -6.64560000      1.08211000     -0.52331500
  C     -3.28691000      3.94247000     -2.14947000
  O     -4.35779000      4.16957000     -2.83583000
  C     -4.30418000     -3.84900000      0.52033200
  O     -5.12767000     -4.65299000      1.11571000
  C      1.50953000      5.36862000     -0.77020100
  O      2.07751000      6.56196000     -0.68860000
