#B3LYP/6-31+G(d) OPT FREQ

110, Energy = -11936.90597089 au

0 1
 Ni     -0.01861310     -3.84837000     -2.54206000
 Ni     -1.41374000     -0.33562600     -1.22319000
 Ni      0.53040900     -4.39517000      0.10513800
 Ni     -0.47277800      4.07466000     -0.18886800
 Ni     -1.15388000      2.21171000     -1.97240000
 Ni     -3.24088000      0.50783200      0.84287500
 Ni     -1.00597000     -0.93660700      1.31168000
 Ni      0.10933500      3.60463000      2.48862000
 Ni      0.30471200     -1.07990000     -3.25337000
 Ni      3.04321000     -0.48598800     -0.66284700
 Ni      0.69637000     -1.72669000     -0.55597400
 Ni      2.53114000     -2.43995000     -2.38359000
 Ni      3.26662000      2.06951000     -1.36212000
 Ni      1.87507000     -0.29988100      3.67837000
 Ni      1.38093000      0.24421800      1.22693000
 Ni      2.56897000      0.11693700     -3.35463000
 Ni      1.10108000      3.41728000     -2.24038000
 Ni     -2.18870000     -2.33118000     -3.18569000
 Ni      3.64735000     -1.17228000      1.69271000
 Ni     -1.69333000     -3.08101000     -0.50561700
 Ni      3.68566000      1.55558000      1.14435000
 Ni      0.93922800      0.86117700     -1.34357000
 Ni     -1.89704000      0.61236700     -3.89066000
 Ni     -3.82336000     -1.67736000     -1.24121000
 Ni      2.13893000      2.40020000      3.10038000
 Ni     -0.26684300      1.06828000      3.31357000
 Ni      3.03437000     -2.97470000      0.03443670
 Ni     -1.22414000     -3.69735000      1.87588000
 Ni     -2.88386000      2.91298000      0.03412530
 Ni      1.75963000      2.91433000      0.50332900
 Ni     -2.61430000      2.41023000      2.70560000
 Ni     -3.01829000     -0.24894400      3.53497000
 Ni      0.39020700      1.67053000     -4.20087000
 Ni     -0.71403300      1.61513000      0.62076300
 Ni     -3.47287000     -2.18163000      1.56516000
 Ni     -0.60807100     -1.55493000      3.72414000
 Ni     -3.49199000      1.04474000     -1.81804000
 Ni      1.34170000     -2.47142000      2.03993000
  C     -4.70853000     -3.78888000      1.43517000
  O     -5.84536000     -4.38139000      1.62931000
  C     -4.61556000     -1.75179000     -3.36140000
  O     -5.67529000     -1.94597000     -4.06181000
  C      1.12760000      3.74541000      4.65985000
  O      1.14213000      4.03492000      5.88305000
  C      5.46619000     -1.97486000      0.42217600
  O      6.72032000     -1.75437000      0.61785000
  C     -5.08005000     -0.10674100      3.10173000
  O     -6.10717000      0.14441000      3.78905000
  C     -1.54847000     -5.57198000      0.88732300
  O     -1.95208000     -6.71026000      1.35071000
  C      3.74346000      3.90591000      1.86924000
  O      4.41591000      4.67055000      2.65268000
  C      2.05489000      1.34765000      5.72427000
  O      2.29516000      1.67710000      6.95173000
  C     -1.81905000     -4.85414000     -3.04643000
  O     -1.84225000     -5.96645000     -3.69580000
  C      4.57657000     -2.43256000     -3.64911000
  O      5.82155000     -2.76501000     -3.64688000
  C      0.63102400     -2.37906000     -5.07596000
  O      1.39566000     -2.29730000     -6.10519000
  C      1.86992000      0.10026700     -5.49118000
  O      2.22170000     -0.25010400     -6.67422000
  C     -1.91357000      2.58026000     -4.90109000
  O     -2.82612000      3.46480000     -5.12410000
  C     -1.82532000     -5.34405000     -0.60292300
  O     -2.38389000     -6.28905000     -1.27692000
  C      2.70379000     -4.49646000      2.46756000
  O      3.23190000     -5.66254000      2.50395000
  C     -4.75249000      1.93663000      1.81727000
  O     -6.02696000      2.12081000      2.06797000
  C      1.77012000     -5.32895000     -1.79489000
  O      2.22710000     -6.47094000     -2.19751000
  C     -1.01554000     -2.59098000     -5.15913000
  O     -1.64236000     -2.55512000     -6.28073000
  C      0.43517500     -5.99661000      2.02887000
  O      1.11903000     -6.86785000      2.67657000
  C     -2.74344000      1.10706000      5.15860000
  O     -2.95186000      1.28981000      6.36407000
  C     -3.92402000     -0.01039750     -4.81194000
  O     -4.57086000     -0.01034410     -5.91559000
  C      0.56910800      4.20981000     -4.35904000
  O     -0.01369630      5.10532000     -5.08955000
  C      3.68838000      4.17084000      0.36760900
  O      4.25694000      5.21972000     -0.09989600
  C      0.00590494     -3.85372000     -4.70968000
  O      0.16999200     -4.94411000     -5.36884000
  C      0.53535200      1.24774000      5.29513000
  O     -0.17096500      1.50525000      6.34150000
  C      5.13686000     -2.84533000     -0.68995600
  O      6.07036000     -3.33282000     -1.42428000
  C     -1.62503000      3.43781000      4.69941000
  O     -1.12858000      3.64393000      5.86409000
  C     -3.01805000      3.63830000      4.47143000
  O     -3.81836000      4.14806000      5.33521000
  C     -3.40818000     -2.30012000      4.24131000
  O     -4.14452000     -2.72728000      5.18960000
  C     -3.99262000     -4.62414000      0.46239100
  O     -4.11056000     -5.88164000      0.55629100
  C      1.83459000      4.84750000      2.71470000
  O      2.23187000      6.05788000      2.96915000
  C     -0.72881100      2.53756000     -5.77974000
  O     -0.58502900      3.16818000     -6.88516000
  C     -4.02381000     -4.03111000     -1.06708000
  O     -5.28692000     -4.25106000     -1.27905000
  C      3.38468000      0.98271100      5.02904000
  O      4.61999000      0.91154400      5.35802000
  C      2.39534000     -3.66818000      3.56458000
  O      2.71302000     -3.89468000      4.78981000
  C     -3.26881000     -4.42881000     -2.63122000
  O     -4.24313000     -5.05582000     -3.19946000

