#B3LYP/6-31+G(d) OPT FREQ

110, Energy = -11746.53668779 au

0 1
 Ni      0.19182900     -3.64274000     -2.37767000
 Ni     -1.37911000     -0.19259300     -1.17351000
 Ni      0.78017000     -4.47145000      0.41097800
 Ni     -0.40876300      4.58294000     -0.33699400
 Ni     -1.16154000      2.51221000     -2.04235000
 Ni     -3.28856000      0.65025700      0.75346500
 Ni     -0.91980400     -0.85178900      1.36410000
 Ni      0.00231408      3.72106000      2.59875000
 Ni      0.34149000     -0.93532900     -3.18801000
 Ni      3.35244000     -0.49581600     -0.68071100
 Ni      0.76610300     -1.62953000     -0.55458100
 Ni      2.45038000     -2.53867000     -2.42535000
 Ni      3.65745000      2.13910000     -1.32751000
 Ni      1.78589000     -0.40777400      3.61915000
 Ni      1.44185000      0.28501500      1.16480000
 Ni      2.72859000      0.22482100     -3.19568000
 Ni      1.31383000      3.66538000     -2.09271000
 Ni     -2.03898000     -2.11124000     -3.01527000
 Ni      3.47821000     -1.29659000      1.90829000
 Ni     -1.53388000     -2.72781000     -0.40846400
 Ni      4.23497000      1.42297000      1.02482000
 Ni      1.00678000      0.95937800     -1.31873000
 Ni     -1.80580000      0.37387600     -3.65563000
 Ni     -3.77806000     -1.33564000     -1.24849000
 Ni      2.09130000      2.29549000      2.87616000
 Ni     -0.42150200      1.14915000      3.22164000
 Ni      2.78487000     -3.08792000      0.17360900
 Ni     -1.14594000     -3.55690000      2.23264000
 Ni     -2.91017000      3.22369000     -0.07310370
 Ni      1.84580000      3.07672000      0.41528000
 Ni     -2.48708000      2.64865000      2.75337000
 Ni     -2.72476000     -0.02501100      3.21768000
 Ni      0.48846900      1.66958000     -3.80518000
 Ni     -0.72049900      1.74696000      0.58335200
 Ni     -3.24820000     -1.94989000      1.42110000
 Ni     -0.57232000     -1.73449000      3.89406000
 Ni     -3.63166000      1.17328000     -1.74610000
 Ni      1.20184000     -2.39804000      2.02960000
  C      5.00973000      1.59427000      3.16017000
  O      6.19475000      1.76840000      3.61807000
  C     -0.71012600     -2.21667000     -5.47157000
  O     -0.96154600     -2.59174000     -6.68322000
  C      3.35360000      4.82331000     -1.32487000
  O      4.25306000      5.61547000     -1.82687000
  C     -2.75943000      4.87344000      2.00461000
  O     -3.33657000      5.89866000      2.48566000
  C      5.84070000      1.33433000      0.20021400
  O      7.08543000      1.17684000      0.45566100
  C      3.43772000      1.68841000     -4.91643000
  O      4.38359000      1.96470000     -5.74383000
  C     -0.36008400      3.50433000      4.45731000
  O     -0.40197700      4.05819000      5.66386000
  C      0.57108400      6.40989000     -1.20295000
  O      0.72471400      7.66029000     -0.96841100
  C     -2.69875000      2.94578000      4.69760000
  O     -3.21225000      3.85244000      5.43928000
  C      1.92238000      5.79218000     -1.78326000
  O      2.48152000      6.64786000     -2.60307000
  C     -0.45457900      6.70345000      1.07159000
  O     -0.37083700      7.99879000      1.28141000
  C     -1.78820000      1.74278000      5.06479000
  O     -1.53364000      1.50403000      6.30896000
  C     -1.94439000      4.46358000     -3.36245000
  O     -2.88547000      4.70574000     -4.18965000
  C      3.20365000     -3.22135000      3.28136000
  O      4.14679000     -3.53852000      4.02755000
  C      2.00812000      5.41278000      1.01957000
  O      2.69248000      6.44268000      0.56316100
  C     -0.78370500     -3.83859000     -4.65975000
  O     -0.94886200     -4.80029000     -5.50186000
  C      0.18370400     -0.90722500     -5.39360000
  O      0.56448200     -0.52094300     -6.55886000
  C      5.82726000      0.77293600     -1.23224000
  O      6.52426000      1.09847000     -2.27601000
  C      2.32412000     -4.85889000     -2.70040000
  O      3.12709000     -5.68052000     -3.38421000
  C     -2.42088000     -2.48719000      5.07282000
  O     -2.67735000     -3.18096000      6.12580000
  C     -4.66115000     -1.04509000     -3.47707000
  O     -5.71241000     -1.28320000     -4.16570000
  C      4.36182000      3.18975000     -3.31944000
  O      5.35139000      3.80620000     -3.86383000
  C     -0.62924300      3.93321000     -3.94927000
  O     -0.56899800      4.46869000     -5.11368000
  C      0.84472700      6.30039000      1.64837000
  O      1.42577000      6.82878000      2.60302000
  C      0.27754000     -4.12042000      3.95893000
  O      0.06818680     -4.91733000      4.95889000
  C     -2.14829000     -5.50297000      1.29447000
  O     -2.97632000     -6.45478000      1.55484000
  C      3.94056000      3.96336000     -0.08597590
  O      4.95716000      4.57623000      0.49612700
  C      1.58775000     -5.71779000     -1.46409000
  O      1.90377000     -7.03390000     -1.32052000
  C     -2.14320000      4.97891000     -1.86155000
  O     -2.89758000      6.00222000     -1.97423000
  C     -5.22133000      2.17816000     -0.09977840
  O     -6.39324000      2.45698000      0.13458900
  C      1.99856000     -4.46876000      3.42411000
  O      2.38288000     -5.08853000      4.45160000
  C      2.72657000      4.96789000      2.29838000
  O      3.90762000      5.49520000      2.26085000
  C      1.81681000     -5.05973000      1.84061000
  O      2.33492000     -6.21086000      2.10519000
  C      1.92830000      4.56797000      3.49968000
  O      2.37160000      5.54228000      4.28802000
  C     -4.91823000      0.85219300      2.39325000
  O     -6.15155000      0.97648300      2.53015000
  C      5.29445000     -0.80136000     -1.07080000
  O      6.42410000     -1.40637000     -1.12873000

