#B3LYP/6-31+G(d) OPT FREQ

110, Energy = -11731.62564450 au

0 1
 Ni      0.13492300     -3.48305000     -2.45768000
 Ni     -1.39903000     -0.19190300     -1.21204000
 Ni      0.44709300     -4.22995000      0.30415200
 Ni     -0.42228400      4.53187000     -0.34587800
 Ni     -1.21278000      2.45621000     -2.00198000
 Ni     -3.26981000      0.50021900      0.72394000
 Ni     -1.03271000     -0.85775800      1.33204000
 Ni     -0.03904190      3.42344000      2.37791000
 Ni      0.28300500     -0.95073700     -3.20453000
 Ni      3.12282000     -0.49796700     -0.65999700
 Ni      0.70462100     -1.61566000     -0.58230800
 Ni      2.36950000     -2.41026000     -2.62437000
 Ni      3.43053000      2.05759000     -1.58069000
 Ni      2.05834000     -0.27806900      3.74148000
 Ni      1.36994000      0.24055100      1.19283000
 Ni      2.57224000      0.10475500     -3.21092000
 Ni      1.25210000      3.78628000     -2.24817000
 Ni     -2.06300000     -2.01885000     -3.10186000
 Ni      3.69061000     -1.03618000      1.87882000
 Ni     -1.64580000     -2.80245000     -0.40011200
 Ni      3.75403000      1.29910000      1.13316000
 Ni      0.94474000      0.91940400     -1.34814000
 Ni     -2.02292000      0.53805400     -3.74542000
 Ni     -3.69922000     -1.32431000     -1.10490000
 Ni      1.92531000      2.12018000      3.06845000
 Ni     -0.33424800      0.95822300      3.16125000
 Ni      2.81856000     -2.94774000      0.07936920
 Ni     -1.22908000     -3.40414000      2.22529000
 Ni     -3.05376000      2.96927000     -0.10427500
 Ni      1.60522000      2.78463000      0.35604200
 Ni     -2.41315000      2.28535000      2.38411000
 Ni     -3.00802000     -0.20418900      3.42525000
 Ni      0.42753600      1.69525000     -3.90441000
 Ni     -0.74638500      1.65025000      0.51402700
 Ni     -3.53764000     -2.02165000      1.70737000
 Ni     -0.71710100     -1.37889000      3.93963000
 Ni     -3.60215000      1.32161000     -1.99383000
 Ni      1.12250000     -2.26790000      1.98234000
  C     -5.60283000     -1.69696000      1.79211000
  O     -6.81029000     -2.12969000      1.79641000
  C     -0.16981200      2.75443000     -5.85202000
  O     -0.55530900      2.97400000     -7.02085000
  C     -2.91950000      2.84618000     -4.19094000
  O     -3.01944000      3.07222000     -5.45144000
  C     -2.84723000     -1.68231000      5.33847000
  O     -3.20126000     -2.13373000      6.49634000
  C      2.57698000      5.23602000     -1.82333000
  O      3.36680000      6.12971000     -2.31786000
  C     -4.09629000      2.92679000     -3.18756000
  O     -4.83396000      3.87080000     -3.54180000
  C      0.27605100      1.61719000      5.65446000
  O      0.85633300      1.51692000      6.84024000
  C      0.24573100      4.89917000     -3.44158000
  O     -0.06828710      6.13228000     -3.66816000
  C      0.55116600      2.89259000      4.83851000
  O      0.54673300      3.79314000      5.74056000
  C     -4.75139000      0.62853500      4.60255000
  O     -5.97812000      0.78154700      4.92584000
  C     -5.50773000      1.29202000      0.87866000
  O     -6.77424000      0.97766200      0.86873200
  C      0.37927700     -2.90369000     -5.20670000
  O      0.05242690     -3.68697000     -6.23681000
  C     -0.81590300      0.53264000      5.53901000
  O     -1.32982000      0.47501000      6.69493000
  C      5.54633000     -1.24072000      0.34271700
  O      6.78943000     -1.46567000      0.26920600
  C      2.29786000      5.62940000     -0.41462700
  O      3.34024000      6.08189000      0.24190700
  C      3.88177000      3.37173000     -3.45000000
  O      4.81233000      3.86261000     -4.17284000
  C      5.00587000      0.46171700      3.45341000
  O      6.23219000      0.70142900      3.70667000
  C     -1.87562000      5.34359000     -1.74229000
  O     -2.19242000      6.47814000     -2.15101000
  C      4.01373000      0.38049000      4.55917000
  O      4.49464000      0.61078100      5.72792000
  C     -4.32733000     -0.65026500     -3.99422000
  O     -5.27543000     -0.79632700     -4.86322000
  C      5.68886000      1.36270000     -1.50898000
  O      6.83998000      1.38193000     -2.09216000
  C     -0.43575400      4.05763000     -4.59605000
  O     -0.52358000      4.86987000     -5.66044000
  C     -3.58923000      0.84289900      5.34767000
  O     -3.50623000      1.27438000      6.55735000
  C      0.67679800     -4.79956000      3.05930000
  O      0.97468400     -5.68535000      3.91545000
  C     -3.59374000     -3.25349000      3.67003000
  O     -3.90763000     -4.21239000      4.43705000
  C      1.15465000     -1.57111000     -5.19033000
  O      1.50056000     -1.42221000     -6.37936000
  C      3.53273000     -2.54946000     -4.72316000
  O      3.41166000     -3.07349000     -5.89966000
  C     -5.19606000      2.60114000      0.27136000
  O     -6.24511000      3.30760000      0.13768900
  C     -1.29129000     -2.11204000     -5.16475000
  O     -1.68104000     -2.13876000     -6.46978000
  C      1.25091000     -4.03970000     -4.38903000
  O      1.80066000     -4.86760000     -5.24087000
  C     -5.36134000     -0.29035800      2.25897000
  O     -6.38994000      0.19074100      2.91226000
  C     -1.10340000     -5.93900000     -0.41531500
  O     -1.55301000     -7.15110000     -0.40526800
  C     -4.10991000     -2.07107000      4.48455000
  O     -5.26036000     -1.95521000      4.94529000
  C     -3.12288000     -4.50974000     -1.32656000
  O     -3.65560000     -5.68523000     -1.22962000
  C      0.94399100      5.95024000      0.12781000
  O      1.05020000      7.14662000      0.52972400
  C     -1.81375000      3.97942000     -3.75035000
  O     -2.44126000      5.04550000     -4.04235000

