110
Energy = -11904.34353440 au
 Ni     -0.01425360     -3.70691000     -2.29487000
 Ni     -1.42989000     -0.24782000     -1.20252000
 Ni      0.30933600     -4.25520000      0.19002400
 Ni     -0.35443700      4.25559000     -0.13510900
 Ni     -1.25243000      2.28711000     -1.97704000
 Ni     -3.36130000      0.53874700      0.71006700
 Ni     -1.01742000     -0.87548000      1.30124000
 Ni      0.05059730      3.56427000      2.28166000
 Ni      0.24687400     -1.07323000     -3.19942000
 Ni      3.20535000     -0.52536500     -0.74888600
 Ni      0.69561800     -1.64336000     -0.58012000
 Ni      2.54208000     -2.38064000     -2.37142000
 Ni      3.37327000      2.13685000     -1.63764000
 Ni      1.99418000     -0.32155500      3.66105000
 Ni      1.39417000      0.25466700      1.17282000
 Ni      2.79963000      0.18874700     -3.14634000
 Ni      1.19332000      3.34856000     -2.04963000
 Ni     -2.12879000     -2.23887000     -3.06764000
 Ni      3.69601000     -1.08341000      1.86132000
 Ni     -1.75087000     -2.84680000     -0.44319200
 Ni      3.70820000      1.35869000      1.05411000
 Ni      0.97084700      0.86476600     -1.28840000
 Ni     -2.05240000      0.39279600     -3.73221000
 Ni     -3.89204000     -1.28562000     -1.08297000
 Ni      2.19388000      2.21089000      2.96986000
 Ni     -0.33452000      0.99993900      3.03302000
 Ni      2.93613000     -2.96952000      0.02603740
 Ni     -1.34561000     -3.38369000      2.24210000
 Ni     -3.02913000      2.96144000     -0.03094470
 Ni      1.71496000      2.88034000      0.44833600
 Ni     -2.61332000      2.37745000      2.46876000
 Ni     -2.77551000     -0.26602200      3.27150000
 Ni      0.55873800      1.50130000     -3.75502000
 Ni     -0.74997500      1.64507000      0.53749700
 Ni     -3.48883000     -1.99455000      1.63660000
 Ni     -0.65246200     -1.60815000      3.93456000
 Ni     -3.76825000      1.26114000     -1.75828000
 Ni      1.13102000     -2.21637000      1.90115000
  C     -0.99544900     -2.20766000     -5.25857000
  O     -1.47978000     -2.68805000     -6.35198000
  C      5.04403000     -0.35155100     -2.51463000
  O      6.24631000     -0.55180300     -2.86769000
  C     -0.45054700     -2.90175000      6.38403000
  O     -0.43533200     -3.62394000      7.44628000
  C      0.34754500     -1.76499000     -5.32733000
  O      1.05633000     -1.88652000     -6.39382000
  C      1.78896000      4.82911000      4.22527000
  O      2.48323000      5.87998000      4.50338000
  C     -2.74911000     -4.58614000     -3.13512000
  O     -2.95499000     -5.52068000     -4.00117000
  C     -1.69338000      2.73048000      4.75745000
  O     -1.97810000      3.14587000      5.94407000
  C      5.87973000     -1.30198000      1.59085000
  O      6.92267000     -1.71022000      0.96004200
  C      1.72984000     -5.29313000     -2.68774000
  O      1.99216000     -6.46496000     -3.15826000
  C      3.41765000      4.49420000      0.30579900
  O      4.18180000      5.44816000     -0.05883560
  C      4.18125000      0.59656400      4.25760000
  O      5.00898000      0.47718400      5.22434000
  C     -5.19733000     -0.78202600      4.30874000
  O     -6.26943000     -1.06749000      4.96029000
  C     -3.81621000     -3.09693000      3.81575000
  O     -4.94005000     -3.69848000      3.98675000
  C     -3.03381000      3.06732000     -3.61088000
  O     -3.46878000      4.00249000     -4.34672000
  C     -1.69922000     -5.44568000     -2.05761000
  O     -1.60087000     -6.68006000     -2.50923000
  C     -5.38823000     -0.64221200      1.58605000
  O     -6.61635000     -0.61192000      1.94411000
  C     -2.75331000     -4.91148000     -0.87766300
  O     -3.88303000     -5.51112000     -0.96645400
  C     -4.23098000     -0.88281200     -4.42701000
  O     -5.33278000     -1.45921000     -4.72904000
  C     -3.67937000      0.12781900     -5.23672000
  O     -4.27344000      0.46350600     -6.32936000
  C      2.55308000      5.02167000      1.41992000
  O      3.01543000      5.84399000      2.31780000
  C     -1.61841000     -2.35746000      5.89992000
  O     -2.63232000     -2.74237000      6.64687000
  C     -3.93444000     -3.73090000     -2.76737000
  O     -5.02474000     -4.40310000     -2.82173000
  C     -4.08505000     -1.68264000      4.63016000
  O     -4.18553000     -1.97896000      5.90612000
  C      3.33738000      2.61812000     -4.46966000
  O      3.53090000      2.89458000     -5.70149000
  C      4.85611000     -2.69332000     -1.49452000
  O      6.07348000     -2.96021000     -1.76344000
  C      3.99448000      2.62056000      4.25151000
  O      4.60377000      2.76094000      5.38610000
  C     -5.53038000      1.98632000      0.69446000
  O     -6.66815000      1.47587000      1.07432000
  C      5.68638000     -0.69580300      2.83318000
  O      6.54520000     -0.42907200      3.75241000
  C      1.24422000      5.61087000      0.85819100
  O      1.53002000      6.86542000      0.75283400
  C     -5.38203000      2.70731000     -0.64002900
  O     -6.54033000      3.25792000     -0.71259400
  C      4.06028000      3.22713000     -3.41069000
  O      4.93368000      4.11174000     -3.75795000
  C      3.95487000      3.66608000      3.23537000
  O      4.69871000      4.70336000      3.22430000
  C     -2.54891000     -3.91323000      3.99199000
  O     -2.70734000     -4.68736000      5.00831000
  C     -5.74551000      0.22571500     -0.92558400
  O     -7.03171000      0.29678500     -0.95323600
  C     -4.76791000      2.72654000      1.84216000
  O     -5.79397000      3.31801000      2.33619000
  C     -1.50660000     -5.64869000     -0.28047000
  O     -1.81742000     -6.81047000      0.14760400
