110
Energy = -12516.67896182 au
 Ni      0.39625800     -3.74849000     -2.41534000
 Ni     -1.41147000     -0.16426100     -1.23884000
 Ni      0.78564900     -4.74532000      0.15783900
 Ni     -0.85855700      4.33894000     -0.26454700
 Ni     -1.40112000      2.41492000     -2.03314000
 Ni     -3.27863000      0.61137300      0.56761900
 Ni     -0.97149700     -0.71662000      1.29380000
 Ni     -0.26065200      3.63429000      2.21953000
 Ni      0.33423900     -1.05175000     -3.44993000
 Ni      3.36702000     -0.63468000     -0.79921000
 Ni      0.88310400     -1.67821000     -0.69772000
 Ni      2.73053000     -2.55245000     -2.56061000
 Ni      3.20700000      1.93059000     -1.40589000
 Ni      2.16507000     -0.47702900      4.05791000
 Ni      1.45956000      0.35759200      1.21182000
 Ni      2.70601000      0.20224100     -3.41058000
 Ni      0.93159600      3.43481000     -2.19049000
 Ni     -2.24392000     -1.97445000     -3.37372000
 Ni      3.72073000     -1.21096000      1.89596000
 Ni     -1.46224000     -2.68088000     -0.54227200
 Ni      3.95838000      1.30506000      1.41199000
 Ni      0.89586100      0.88053900     -1.43210000
 Ni     -1.87787000      0.50513400     -3.71403000
 Ni     -3.66493000     -1.34755000     -1.28349000
 Ni      1.96547000      2.45157000      2.88074000
 Ni     -0.49027200      1.21741000      3.23218000
 Ni      3.05315000     -3.35742000      0.20362600
 Ni     -1.07732000     -3.28886000      2.00441000
 Ni     -3.15586000      3.07783000     -0.21828400
 Ni      1.70172000      3.04424000      0.43080600
 Ni     -2.67562000      2.55475000      2.29292000
 Ni     -3.01214000      0.02817980      3.12346000
 Ni      0.52660000      1.85394000     -4.14042000
 Ni     -0.77371200      1.76294000      0.52533000
 Ni     -3.26721000     -1.91014000      1.36737000
 Ni     -0.51949600     -1.21664000      3.84761000
 Ni     -3.83373000      1.06681000     -1.97801000
 Ni      1.27256000     -2.17612000      1.83952000
  C     -5.35299000      1.67549000      0.90782200
  O     -6.36270000      1.14919000      1.49614000
  C     -0.97286300      0.63317100      5.43227000
  O     -0.76954800      0.37118600      6.67611000
  C      3.90331000     -1.20014000      4.55954000
  O      4.52940000     -1.26246000      5.70186000
  C      5.07243000      0.91816700      3.44656000
  O      5.52872000      0.40682500      4.53355000
  C      4.84665000     -1.06809000     -2.28231000
  O      6.03282000     -0.56199900     -2.37301000
  C     -4.55420000      2.92778000      1.55787000
  O     -5.40758000      3.73987000      2.08147000
  C      1.19413000     -6.54141000      0.66954900
  O      1.45371000     -7.68134000      0.11344300
  C      1.42198000     -3.43033000     -4.18483000
  O      1.51110000     -3.97449000     -5.41204000
  C      3.34778000      1.25978000      5.70529000
  O      4.26151000      1.92111000      6.30518000
  C     -4.14104000     -1.36135000     -3.85274000
  O     -4.81772000     -2.11373000     -4.65711000
  C      2.71752000      4.30531000      2.61391000
  O      3.05481000      5.17690000      3.50487000
  C     -1.41567000      1.94399000      4.97972000
  O     -1.86463000      2.98468000      5.57736000
  C      5.40705000     -1.03888000      0.82378000
  O      6.63656000     -1.47977000      0.90861200
  C      5.36200000      2.05809000      2.67279000
  O      6.20288000      3.02469000      2.83910000
  C      1.60974000     -0.33716600      6.02251000
  O      1.15748000     -0.99015200      7.02841000
  C     -0.02867070      3.65512000     -4.68562000
  O      0.40426100      4.79594000     -5.09975000
  C     -1.39100000      4.93304000     -2.78979000
  O     -1.02016000      5.85881000     -3.59353000
  C      4.60120000     -2.47243000     -2.79238000
  O      5.37750000     -3.39446000     -3.24426000
  C      2.13382000      1.02218000      6.43132000
  O      1.57790000      1.84176000      7.30059000
  C      3.47262000     -4.40691000      1.70584000
  O      4.27259000     -5.37968000      1.98556000
  C     -5.25316000      1.67177000     -0.67508800
  O     -6.49464000      1.73716000     -1.02129000
  C     -2.38626000      5.37817000     -1.39686000
  O     -2.76040000      6.58950000     -1.17178000
  C     -1.55145000     -2.38103000     -5.05531000
  O     -2.01048000     -3.16726000     -5.97131000
  C      2.90295000     -4.91534000     -1.19189000
  O      3.66494000     -6.00164000     -1.30995000
  C     -1.12298000      2.73077000     -5.10583000
  O     -1.95729000      2.84252000     -6.07190000
  C      2.80777000      4.49441000      1.14449000
  O      3.42085000      5.42378000      0.49409400
  C     -0.33354900     -1.52379000     -5.21852000
  O      0.26756800     -1.28039000     -6.34081000
  C     -2.78538000      4.18873000     -2.53007000
  O     -3.77497000      4.05221000     -3.34352000
  C     -5.17741000     -0.54980800      3.33978000
  O     -6.19044000     -1.33362000      3.39704000
  C      0.39227700     -5.73541000     -1.95555000
  O      0.91941300     -6.78873000     -2.55842000
  C      1.10487000     -5.90551000      1.93477000
  O      1.23195000     -5.96992000      3.20887000
  C     -1.70954000      5.07651000      1.92234000
  O     -2.02606000      6.23665000      2.49031000
  C      2.53610000      2.19360000     -4.60801000
  O      3.13976000      2.75137000     -5.64597000
  C     -4.58870000      0.08971360     -3.61835000
  O     -5.59195000      0.59315600     -4.25393000
  C      2.11414000     -0.37801600     -5.23620000
  O      2.60957000     -0.74052800     -6.38955000
  C     -4.88782000      0.80402000      3.62193000
  O     -5.52389000      1.85898000      4.00029000
