#B3LYP/6-31+G(d) OPT FREQ

110, Energy = -12179.17825831 au

0 1
 Ni      0.09067500     -3.50861000     -2.39705000
 Ni     -1.45924000     -0.20093200     -1.13316000
 Ni      0.25505900     -4.36800000      0.46715700
 Ni     -0.63996800      4.12277000     -0.26872600
 Ni     -1.25138000      2.32083000     -2.01267000
 Ni     -3.45512000      0.56525200      0.85937200
 Ni     -1.05458000     -0.92819200      1.41188000
 Ni     -0.32641000      3.57076000      2.25417000
 Ni      0.32577500     -1.00629000     -3.09833000
 Ni      3.32189000     -0.60880100     -0.79510300
 Ni      0.73151000     -1.67506000     -0.48957100
 Ni      2.35671000     -2.32933000     -2.48981000
 Ni      3.46850000      1.95250000     -1.46464000
 Ni      1.61836000     -0.32629200      3.92114000
 Ni      1.34778000      0.17585900      1.19439000
 Ni      2.76626000      0.41717800     -3.36282000
 Ni      1.05533000      3.43340000     -2.27420000
 Ni     -2.08844000     -2.04084000     -2.84170000
 Ni      3.45756000     -1.14646000      1.80678000
 Ni     -1.67201000     -2.88539000     -0.31933800
 Ni      3.82875000      1.31493000      0.92924900
 Ni      0.97735500      0.85612300     -1.32961000
 Ni     -2.01070000      0.40125800     -3.63782000
 Ni     -3.94370000     -1.30661000     -0.88658400
 Ni      1.98298000      2.05527000      2.84801000
 Ni     -0.55022500      1.04412000      3.17863000
 Ni      2.82091000     -3.20343000      0.33447500
 Ni     -1.31476000     -3.60107000      2.21403000
 Ni     -3.13389000      3.10040000     -0.10288700
 Ni      1.54602000      2.68670000      0.35537300
 Ni     -2.62817000      2.61126000      2.74537000
 Ni     -3.09573000     -0.12131500      3.36635000
 Ni      0.64925500      1.74723000     -3.83012000
 Ni     -0.86032400      1.62676000      0.57107000
 Ni     -3.74880000     -2.20333000      1.74460000
 Ni     -0.75561100     -1.49192000      4.18671000
 Ni     -3.88617000      1.28744000     -1.69091000
 Ni      1.16587000     -2.52758000      2.12244000
  C     -5.58134000      2.31231000     -0.42153000
  O     -6.60895000      2.95612000     -0.84681700
  C      3.36227000      1.90399000     -4.67065000
  O      4.38867000      1.92278000     -5.45815000
  C     -4.74263000      1.20708000      2.86245000
  O     -5.87794000      0.98304500      3.44160000
  C     -0.14272000     -0.64749200      5.96772000
  O     -0.62655300     -0.71772500      7.17110000
  C     -5.80107000      1.40032000     -2.55717000
  O     -7.05919000      1.68683000     -2.50151000
  C     -4.06804000     -0.14472800     -4.42776000
  O     -4.55158000     -0.50112300     -5.59351000
  C     -0.60504000      4.03647000     -3.82193000
  O     -0.53361800      4.56604000     -4.99761000
  C     -1.51913000     -5.53708000     -0.73813800
  O     -1.91378000     -6.44816000     -1.53938000
  C     -3.12008000     -0.16029700      5.84405000
  O     -2.58614000     -0.14071400      7.05368000
  C      0.76092400     -5.12826000      2.43643000
  O      0.87945800     -6.28956000      2.99608000
  C      1.09483000      0.09931630      5.80840000
  O      1.62462000      0.72317500      6.80826000
  C     -3.46694000     -1.39912000      4.99652000
  O     -4.40888000     -2.03128000      5.60025000
  C     -1.73989000      4.76447000     -3.05760000
  O     -1.86642000      6.04374000     -3.13159000
  C     -4.38852000     -3.88655000      0.40037300
  O     -5.13280000     -4.89852000      0.63295000
  C     -5.51232000      0.35168400     -3.55915000
  O     -6.51846000     -0.36337600     -3.94974000
  C     -3.10814000      4.14380000     -2.32842000
  O     -4.11821000      4.74174000     -2.92489000
  C     -2.25821000      5.03574000      2.11442000
  O     -2.68668000      6.12169000      2.59786000
  C      5.15337000     -1.16071000     -2.18323000
  O      5.98267000     -1.19688000     -3.15971000
  C     -5.31532000     -1.35162000      3.07268000
  O     -6.25881000     -1.55052000      3.91644000
  C      3.12928000     -4.37155000      1.95034000
  O      3.92164000     -5.30417000      2.34507000
  C      0.87572600     -3.10299000     -4.49694000
  O      0.87783400     -3.64248000     -5.68788000
  C     -5.54080000      1.00201000      0.40709700
  O     -6.66420000      1.16547000      1.02356000
  C     -5.08546000      3.25733000      0.90748000
  O     -5.76169000      4.34436000      0.87819500
  C      2.53389000      3.09404000     -4.62482000
  O      2.73434000      4.21107000     -5.21772000
  C     -1.97130000     -5.41017000      0.67851100
  O     -2.76568000     -6.31640000      1.12917000
  C     -1.48915000      2.08393000      4.97347000
  O     -1.45025000      1.85301000      6.24249000
  C      5.40718000     -1.44842000     -0.82305500
  O      6.52184000     -1.81155000     -0.29751100
  C     -2.27854000     -3.36184000      4.55167000
  O     -2.40773000     -3.74740000      5.76447000
  C      2.03818000     -4.45461000      3.07680000
  O      2.30271000     -4.45058000      4.33951000
  C     -4.95015000      2.72291000      2.41251000
  O     -5.74698000      3.44071000      3.11317000
  C     -5.52936000     -0.99752200      1.60471000
  O     -6.77276000     -1.05826000      1.25114000
  C      5.51625000      1.36105000     -0.84655200
  O      6.83320000      1.22615000     -1.31277000
  C     -6.20822000     -0.93609600     -1.40000000
  O     -7.35119000     -0.68653700     -0.85729100
  C     -3.94641000      0.96024600      5.36551000
  O     -4.58351000      1.57216000      6.28405000
  C     -2.09838000      3.37373000      4.59288000
  O     -2.29346000      4.36261000      5.38912000
  C     -3.41097000     -3.48306000      3.60170000
  O     -4.48672000     -4.05169000      4.00822000

