110
Energy = -12500.06117799 au
 Ni      0.07821750     -3.42479000     -2.56789000
 Ni     -1.40624000     -0.25343900     -1.26134000
 Ni      0.42177900     -4.55876000      0.46712500
 Ni     -0.67265000      4.13273000     -0.39921800
 Ni     -1.32906000      2.34374000     -1.99663000
 Ni     -3.25946000      0.52243100      0.58376800
 Ni     -0.99602800     -0.87961000      1.30410000
 Ni     -0.27351800      3.66829000      2.68525000
 Ni      0.40630800     -1.06249000     -3.44301000
 Ni      3.39302000     -0.46014200     -0.79341700
 Ni      0.79658700     -1.69568000     -0.58793500
 Ni      2.69354000     -2.38860000     -2.64225000
 Ni      3.73975000      2.01673000     -1.70081000
 Ni      1.95424000     -0.00766440      4.09362000
 Ni      1.42100000      0.24049900      1.23521000
 Ni      3.02598000      0.25079200     -3.52599000
 Ni      1.20074000      3.29803000     -2.04057000
 Ni     -2.18484000     -2.18648000     -3.32524000
 Ni      3.48236000     -1.04713000      1.80952000
 Ni     -1.71061000     -2.91665000     -0.45353100
 Ni      4.13943000      1.61803000      0.98289500
 Ni      1.04223000      0.81120100     -1.33451000
 Ni     -2.13233000      0.27610500     -3.71813000
 Ni     -3.86629000     -1.19957000     -1.06084000
 Ni      2.32632000      2.30230000      2.98458000
 Ni     -0.21811200      1.09170000      3.17272000
 Ni      3.18591000     -2.99644000     -0.00039569
 Ni     -1.17423000     -3.41614000      2.12803000
 Ni     -3.18957000      3.07096000     -0.23294800
 Ni      1.68161000      2.68923000      0.49336200
 Ni     -2.42707000      2.27741000      2.31509000
 Ni     -2.68287000     -0.31745100      3.22485000
 Ni      0.55729800      1.37501000     -3.79682000
 Ni     -0.74364700      1.64665000      0.53388000
 Ni     -3.62967000     -1.94095000      1.65297000
 Ni     -0.49690100     -1.27393000      3.98453000
 Ni     -3.90149000      1.41740000     -1.97649000
 Ni      1.17257000     -2.40191000      1.98720000
  C      4.61634000      1.27077000      3.76936000
  O      5.87503000      1.40305000      3.90747000
  C      4.96205000      0.05364740     -2.45738000
  O      6.00855000     -0.37043000     -3.07736000
  C      3.41730000      3.95142000      2.36178000
  O      3.45707000      5.16338000      2.80407000
  C     -2.71338000     -4.61715000     -1.59022000
  O     -3.43831000     -5.62651000     -1.29491000
  C     -4.36841000     -2.65555000     -3.71151000
  O     -5.48838000     -3.11821000     -4.11916000
  C      4.29900000      2.73211000     -3.46974000
  O      5.02030000      3.76520000     -3.75060000
  C      1.04959000     -5.86576000      1.83791000
  O      1.39164000     -7.09731000      1.93719000
  C      3.64388000      0.88575300      4.81033000
  O      4.01145000      0.93786900      6.05073000
  C     -3.88226000     -1.68279000     -4.81304000
  O     -3.80747000     -2.07720000     -6.05483000
  C     -0.78001500     -1.82341000     -5.03895000
  O     -0.74534300     -1.66556000     -6.32233000
  C      1.32512000     -3.16708000     -4.47643000
  O      1.87855000     -3.53618000     -5.57729000
  C     -5.77330000     -0.31251000      0.22821400
  O     -6.99995000      0.05053950      0.11946700
  C     -5.59908000      1.79040000     -1.10448000
  O     -6.76086000      1.57149000     -1.61246000
  C      3.47947000     -4.33160000      1.93734000
  O      4.15142000     -5.36413000      2.31314000
  C      4.46158000      3.49534000      1.39974000
  O      5.43173000      4.25328000      1.01599000
  C      4.96529000     -2.62613000     -1.07903000
  O      6.18890000     -2.59865000     -0.66966700
  C      3.91964000      1.72808000     -4.46801000
  O      4.22896000      1.76544000     -5.72075000
  C      4.63864000     -2.76867000     -2.53724000
  O      5.53012000     -3.05143000     -3.41943000
  C     -1.31893000      5.34105000      3.20560000
  O     -1.61602000      6.57647000      2.98793000
  C     -3.19799000      4.57466000     -2.23379000
  O     -3.91034000      5.65645000     -2.25650000
  C     -1.52715000      4.49339000      4.31793000
  O     -2.01816000      4.37814000      5.49507000
  C     -1.66141000      4.79139000     -2.28705000
  O     -1.43255000      5.76158000     -3.09946000
  C      1.89500000     -0.57779500     -5.16287000
  O      2.13457000     -0.97385100     -6.41434000
  C      0.93466100      0.19673700      5.77149000
  O      1.48025000      0.52049900      6.89412000
  C      5.75588000      1.08877000     -1.42633000
  O      6.76928000      1.77786000     -1.81429000
  C     -5.43928000     -1.16385000      1.39732000
  O     -6.41206000     -1.42767000      2.20678000
  C     -5.18766000      2.59105000      0.08782660
  O     -6.07164000      3.15619000      0.83892500
  C     -0.56010500      0.03545480      5.62798000
  O     -1.36122000      0.36590100      6.58258000
  C     -3.89645000      3.26989000     -2.76920000
  O     -4.83255000      3.51662000     -3.61705000
  C     -4.08114000     -0.18590900     -4.37350000
  O     -5.27841000      0.07952880     -4.74393000
  C     -0.18869800     -3.31519000     -4.95982000
  O     -0.69450100     -4.31244000     -5.58079000
  C     -3.44306000     -2.59485000      3.79159000
  O     -4.18086000     -3.20790000      4.67449000
  C      5.56969000      0.61595500      0.06960220
  O      6.74190000      0.18569300      0.38535700
  C      0.91551500     -4.82168000      2.86936000
  O      1.33191000     -5.13753000      4.04700000
  C      0.52888100      2.99864000      4.61510000
  O      0.37591400      3.51953000      5.82809000
  C     -1.34297000     -5.68969000      0.43905600
  O     -1.66944000     -6.90936000      0.20460300
