110
Energy = -12198.11355037 au
 Ni      0.22699300     -3.47285000     -2.32867000
 Ni     -1.44345000     -0.22619500     -1.19966000
 Ni      0.66795300     -4.50724000      0.42287700
 Ni     -0.76922900      4.27142000     -0.14152000
 Ni     -1.32098000      2.45481000     -2.04993000
 Ni     -3.54058000      0.67455200      0.76851300
 Ni     -1.01969000     -0.88011500      1.34739000
 Ni     -0.07553170      3.40380000      2.29590000
 Ni      0.33101200     -0.96540800     -3.23374000
 Ni      3.16573000     -0.54177800     -0.78358600
 Ni      0.70323800     -1.66014000     -0.53920000
 Ni      2.43832000     -2.36519000     -2.65551000
 Ni      3.34107000      2.32881000     -1.63591000
 Ni      1.85672000     -0.40167000      4.11197000
 Ni      1.34235000      0.21990700      1.22567000
 Ni      2.72991000      0.25970700     -3.39233000
 Ni      0.97979500      3.58136000     -2.20803000
 Ni     -1.90886000     -2.11198000     -3.17892000
 Ni      3.45248000     -1.09003000      1.87720000
 Ni     -1.68421000     -2.97066000     -0.51622400
 Ni      3.68076000      1.37996000      1.04221000
 Ni      0.96369800      0.89743000     -1.36075000
 Ni     -1.88953000      0.51060500     -3.72164000
 Ni     -3.94756000     -1.18338000     -0.93103300
 Ni      2.11650000      2.06808000      3.16684000
 Ni     -0.30034800      1.00389000      3.23245000
 Ni      2.87952000     -3.01319000     -0.03492700
 Ni     -1.15791000     -3.41361000      2.08491000
 Ni     -3.27199000      3.58565000     -0.24538400
 Ni      1.66674000      2.84065000      0.37761700
 Ni     -2.49226000      2.28956000      2.63980000
 Ni     -2.77802000      0.01140240      3.27531000
 Ni      0.43895200      1.77997000     -3.82303000
 Ni     -0.82934300      1.65003000      0.51795100
 Ni     -3.52294000     -1.77637000      1.47251000
 Ni     -0.39692800     -1.49669000      4.09583000
 Ni     -3.79464000      1.37028000     -1.85977000
 Ni      1.26201000     -2.53737000      2.12036000
  C      3.44971000      4.34410000     -0.22144300
  O      4.06853000      5.44046000      0.03486200
  C     -5.76714000      2.11910000      0.10768100
  O     -6.62966000      1.82757000      1.00984000
  C     -2.91525000     -4.68135000     -1.43218000
  O     -3.88542000     -5.19272000     -2.10339000
  C     -0.70461700      4.82865000     -3.20135000
  O     -0.58574000      6.10051000     -3.23444000
  C     -3.37540000      4.32621000     -1.92655000
  O     -4.41051000      4.98279000     -2.33732000
  C     -5.65545000      1.48919000     -1.26615000
  O     -6.85094000      1.77741000     -1.64593000
  C      0.36736300      2.38284000      4.96326000
  O      0.07114850      2.55919000      6.23213000
  C      1.46661000     -2.84618000      4.60307000
  O      1.82203000     -3.73815000      5.49040000
  C     -5.63115000     -0.68770600      0.11369800
  O     -6.87320000     -0.38836300     -0.12455100
  C     -3.37162000      5.21571000      0.64644600
  O     -4.43022000      5.92375000      0.89505800
  C     -3.30148000      2.31120000     -4.19891000
  O     -3.75138000      3.04928000     -5.15409000
  C     -5.04573000      3.44234000      0.23560700
  O     -6.09285000      4.18446000      0.07754310
  C     -5.70463000     -0.72192500      1.68366000
  O     -6.57601000     -1.43374000      2.24308000
  C      4.07541000      0.72987600      4.21140000
  O      4.97759000      0.87356700      5.09509000
  C      3.90007000      1.12660000     -4.89258000
  O      4.54401000      0.90016400     -5.96962000
  C      1.40773000     -1.98008000     -5.31825000
  O      2.10790000     -1.52453000     -6.29218000
  C     -2.05557000      5.77407000      0.87219800
  O     -1.94968000      6.88865000      1.51104000
  C     -2.60013000      1.95954000      4.80909000
  O     -3.15094000      2.83165000      5.58451000
  C      4.05595000      3.19445000     -3.25561000
  O      4.79039000      4.20451000     -3.55784000
  C     -0.34497400     -4.76910000      3.94768000
  O      0.12153000     -5.89606000      4.36385000
  C     -1.28319000     -2.32948000     -5.05581000
  O     -1.58944000     -3.04548000     -6.08384000
  C     -2.30009000      4.52737000     -2.99163000
  O     -2.69567000      4.95374000     -4.13416000
  C     -0.51038200     -0.32034300      5.93212000
  O     -0.91014900     -0.80086800      7.06496000
  C     -2.02270000     -5.35455000     -0.60131200
  O     -2.06945000     -6.60728000     -0.31933000
  C     -0.24358600      3.74231000     -4.30355000
  O     -0.67014900      4.28867000     -5.38608000
  C      3.31613000      4.17407000      2.97435000
  O      3.94529000      5.12696000      3.57117000
  C      1.96760000     -5.68138000     -1.11630000
  O      2.31400000     -6.91063000     -1.23719000
  C      2.08770000     -4.57294000      2.61982000
  O      2.84181000     -4.93056000      3.60121000
  C      3.71705000      2.58172000     -4.58963000
  O      3.51104000      3.37880000     -5.60705000
  C      1.01123000     -0.01836510      5.82502000
  O      1.53158000      0.41118400      6.92158000
  C      4.89967000     -2.14470000     -1.41063000
  O      6.14520000     -2.24415000     -1.62409000
  C     -0.09032460     -1.55768000     -5.63897000
  O     -0.07256410     -0.87167500     -6.72370000
  C     -2.03648000      0.77427100      5.60737000
  O     -2.44840000      0.74731400      6.83086000
  C     -4.89997000      0.38543400      2.49567000
  O     -5.91425000      0.98654400      3.04293000
  C      1.71793000     -3.26068000     -4.47254000
  O      1.87361000     -4.14389000     -5.39491000
  C      1.44476000     -5.60445000      1.81480000
  O      1.54142000     -6.85031000      2.14357000
