#B3LYP/6-31+G(d) OPT FREQ

110, Energy = -11917.25368600 au

0 1
 Ni      0.27857400     -3.56119000     -2.39289000
 Ni     -1.41761000     -0.25103000     -1.20052000
 Ni      0.67165300     -4.23578000      0.23131600
 Ni     -0.27253800      4.29277000     -0.11471700
 Ni     -1.14008000      2.21059000     -1.95206000
 Ni     -3.30021000      0.43743900      0.67375100
 Ni     -0.98006400     -0.88913200      1.34490000
 Ni     -0.07733800      3.58459000      2.33389000
 Ni      0.35565000     -1.06269000     -3.29770000
 Ni      3.26645000     -0.53294500     -0.67743100
 Ni      0.79002200     -1.63312000     -0.58132000
 Ni      2.66695000     -2.40788000     -2.56119000
 Ni      3.64861000      1.90807000     -1.40116000
 Ni      1.75251000     -0.28474800      3.79314000
 Ni      1.42033000      0.23902900      1.19266000
 Ni      2.86546000      0.05863670     -3.40571000
 Ni      1.22612000      3.34681000     -2.04982000
 Ni     -2.27615000     -2.16538000     -3.06229000
 Ni      3.76955000     -1.02004000      1.77276000
 Ni     -1.64866000     -2.71199000     -0.40947500
 Ni      3.86608000      1.26971000      1.17887000
 Ni      1.03737000      0.84660800     -1.32794000
 Ni     -1.98409000      0.17170700     -3.82651000
 Ni     -3.95960000     -1.46443000     -1.28116000
 Ni      1.96721000      2.07808000      3.17159000
 Ni     -0.26531000      0.98790800      3.17711000
 Ni      3.05314000     -3.12238000      0.06999160
 Ni     -1.34052000     -3.49560000      2.29162000
 Ni     -2.80000000      2.95048000     -0.05816160
 Ni      1.70837000      2.79408000      0.48597000
 Ni     -2.45047000      2.49388000      2.65387000
 Ni     -2.69347000     -0.35470300      3.25327000
 Ni      0.53758900      1.46039000     -3.95535000
 Ni     -0.71660800      1.62584000      0.59742900
 Ni     -3.45550000     -2.19130000      1.54737000
 Ni     -0.67670400     -1.62648000      3.94580000
 Ni     -3.68074000      0.97805400     -1.99275000
 Ni      1.20780000     -2.32054000      1.93737000
  C      4.33014000      0.83748900      4.26640000
  O      4.71081000      1.12522000      5.44089000
  C     -4.47534000     -3.87522000      0.33164200
  O     -5.14391000     -4.93942000      0.52445000
  C     -5.55838000      1.05413000      0.60063300
  O     -6.53879000      1.80156000      0.36390500
  C     -4.05047000     -2.65454000     -3.94097000
  O     -4.83713000     -3.09518000     -4.85626000
  C      5.80723000     -0.04367920     -1.00465000
  O      6.76696000     -0.65749500     -1.61837000
  C      1.16194000      2.07123000      5.22111000
  O      1.28424000      2.98974000      6.11039000
  C     -3.24966000     -2.33996000      4.50598000
  O     -4.14436000     -2.23631000      5.42304000
  C      5.20526000      0.52097500      3.12381000
  O      6.45355000      0.53428800      3.40730000
  C      1.92344000     -0.18950500     -5.44449000
  O      2.21870000     -0.59900200     -6.61847000
  C     -3.50107000     -3.69393000      3.51163000
  O     -4.41321000     -4.46455000      3.91505000
  C      0.64723600      0.79136500      5.63302000
  O      0.30213400      0.53300100      6.82231000
  C      1.49142000     -3.20978000     -4.43549000
  O      1.71809000     -3.67493000     -5.74761000
  C      5.20915000      0.51765200     -3.37510000
  O      6.36285000      1.04880000     -3.53776000
  C     -0.54465300     -1.12958000     -5.33969000
  O     -0.29934100     -1.55404000     -6.56641000
  C     -1.39218000      3.16406000      4.76822000
  O     -0.90081300      3.63860000      5.87855000
  C      1.31514000      5.56409000      1.68098000
  O      2.03169000      6.32607000      2.43792000
  C     -2.86038000      2.99543000      4.73238000
  O     -3.62322000      3.29145000      5.71830000
  C     -3.72121000     -3.76227000     -2.80283000
  O     -4.01943000     -5.00592000     -2.66598000
  C     -2.54442000      4.87605000      2.76093000
  O     -3.24207000      5.77990000      3.33137000
  C     -4.11400000     -0.76611800     -4.37750000
  O     -4.57446000     -0.75604600     -5.56049000
  C      5.62851000      1.48288000     -1.09889000
  O      6.72033000      2.06701000     -1.39271000
  C      4.86525000     -2.71774000     -2.56390000
  O      5.89549000     -2.70029000     -3.30017000
  C      2.56662000     -4.64819000      1.95671000
  O      3.13734000     -5.53277000      2.67762000
  C     -5.14134000      0.04710220     -3.50059000
  O     -6.08266000      0.90062000     -3.93964000
  C     -2.02957000     -3.35718000      5.14064000
  O     -1.97667000     -3.91276000      6.28555000
  C      3.29160000      4.57405000     -0.08949280
  O      3.81779000      5.65300000      0.38546400
  C     -5.56663000     -0.12297200      1.36198000
  O     -6.55156000     -0.60367100      1.95167000
  C      5.49624000     -0.98064000      0.33217000
  O      6.54220000     -1.70817000      0.50675900
  C     -2.09497000     -4.53355000      3.99833000
  O     -2.12621000     -5.74818000      4.46128000
  C     -0.43946700      3.63093000     -4.61321000
  O     -0.81949000      4.31485000     -5.63895000
  C      4.90106000     -3.28017000     -1.24809000
  O      6.01303000     -3.80043000     -0.96694300
  C     -1.37992000     -1.54309000      6.55458000
  O     -2.11622000     -1.93322000      7.52998000
  C     -5.52342000     -1.08987000     -2.61582000
  O     -6.41967000     -1.78501000     -3.18000000
  C      1.07631000      5.92157000      0.33321800
  O      1.63819000      7.02565000     -0.19579200
  C      4.82445000     -0.59518000     -4.15884000
  O      5.62556000     -1.15438000     -4.96326000
  C      1.51819000     -5.61277000     -1.74817000
  O      1.97767000     -6.70718000     -2.16039000

