110
Energy = -11968.57542573 au
 Ni      0.20928800     -3.54911000     -2.24453000
 Ni     -1.47297000     -0.15596400     -1.18730000
 Ni      0.62322100     -4.23768000      0.22584400
 Ni     -0.41424400      4.62141000     -0.29679500
 Ni     -1.20849000      2.43326000     -2.13573000
 Ni     -3.32056000      0.58341900      0.74024800
 Ni     -0.96269700     -0.79574100      1.36416000
 Ni     -0.25634600      3.70106000      2.47538000
 Ni      0.26867000     -0.92878900     -3.03579000
 Ni      3.29512000     -0.47431200     -0.73146200
 Ni      0.75799500     -1.58478000     -0.53152900
 Ni      2.66807000     -2.23263000     -2.40382000
 Ni      3.52483000      1.95874000     -1.40274000
 Ni      1.78314000     -0.37234300      3.65095000
 Ni      1.39144000      0.28715100      1.18253000
 Ni      2.86163000      0.25575400     -3.19768000
 Ni      1.36444000      3.59706000     -2.10083000
 Ni     -2.35778000     -2.17050000     -3.17626000
 Ni      3.62708000     -1.15446000      1.76450000
 Ni     -1.59892000     -2.64787000     -0.46263000
 Ni      3.77338000      1.35893000      0.99479900
 Ni      0.98121100      0.95442500     -1.32738000
 Ni     -1.85707000      0.42993400     -3.77722000
 Ni     -4.00489000     -1.19035000     -1.09972000
 Ni      1.91440000      2.17286000      3.11007000
 Ni     -0.35642600      1.10155000      3.16551000
 Ni      2.80296000     -3.02571000      0.12460600
 Ni     -1.16670000     -3.30530000      2.07922000
 Ni     -2.88055000      3.19000000     -0.29835200
 Ni      1.74135000      2.95762000      0.44182500
 Ni     -2.53753000      2.75098000      2.62477000
 Ni     -2.64712000      0.03326100      3.38376000
 Ni      0.59109300      1.87176000     -3.94083000
 Ni     -0.76221400      1.73429000      0.57563700
 Ni     -3.35740000     -1.86094000      1.39798000
 Ni     -0.57099400     -1.36112000      4.09801000
 Ni     -3.88483000      1.41454000     -1.92747000
 Ni      1.19921000     -2.34519000      2.03072000
  C      0.89570400      3.43230000      4.79651000
  O      0.41630300      4.32810000      5.60315000
  C     -1.99421000     -2.77122000      5.29692000
  O     -2.32522000     -3.21051000      6.46208000
  C     -3.04445000      4.68900000      2.68704000
  O     -4.14269000      5.33787000      2.88163000
  C     -1.71091000      5.27447000      2.69003000
  O     -1.57788000      6.53837000      2.91723000
  C     -5.73652000      1.74997000      0.21793100
  O     -6.50779000      2.55188000      0.85928200
  C     -2.29526000      0.72564200      5.32308000
  O     -3.05560000      0.85964800      6.34005000
  C     -4.49129000     -1.54835000     -3.56718000
  O     -5.39929000     -1.82563000     -4.41041000
  C      2.79813000      2.33003000     -4.70950000
  O      3.36867000      2.92301000     -5.65594000
  C     -2.20604000      4.45991000     -3.09246000
  O     -2.78414000      5.29425000     -3.86639000
  C      5.38951000      0.76293100     -1.32973000
  O      6.62608000      0.95462000     -1.01168000
  C      1.82560000     -5.41692000     -1.75025000
  O      2.25029000     -6.53682000     -2.17394000
  C     -3.50511000      2.93928000      4.71150000
  O     -4.27696000      3.02970000      5.75449000
  C      3.50115000      4.21430000      0.56794900
  O      4.56391000      4.90642000      0.78506700
  C     -1.38438000     -2.44884000     -5.21528000
  O     -1.60935000     -3.07309000     -6.30511000
  C     -4.51307000      3.67382000     -2.30684000
  O     -5.14640000      4.78142000     -2.40895000
  C     -1.44317000      3.57879000     -4.25363000
  O     -2.20986000      3.41714000     -5.27755000
  C     -3.07552000     -4.32546000     -3.05072000
  O     -3.98668000     -5.09557000     -3.52468000
  C     -5.53450000      0.55417700      1.28653000
  O     -6.05185000      0.67903100      2.43611000
  C     -5.69950000      1.53360000     -1.27810000
  O     -6.87692000      1.66951000     -1.72390000
  C     -2.02654000      3.20411000      4.82495000
  O     -1.72889000      4.33588000      5.38821000
  C      2.55578000      5.03946000     -1.32500000
  O      3.45967000      5.87957000     -1.70278000
  C     -0.57917900      0.09892180      5.57004000
  O     -0.32465300     -0.07948760      6.82097000
  C      0.06857360      3.85665000     -4.47309000
  O      0.09875630      4.82634000     -5.30859000
  C     -2.33876000      5.30460000     -1.69908000
  O     -3.39774000      6.08911000     -1.49889000
  C      2.24561000      5.60192000      0.12462500
  O      2.68536000      6.55075000      0.92269000
  C     -1.01600000      6.09139000     -1.62587000
  O     -1.05164000      7.03580000     -2.45128000
  C      0.75762600      6.06527000      0.32097200
  O      0.56025500      7.30301000      0.53142700
  C      5.37178000     -0.10712000     -2.62400000
  O      6.25133000      0.18678900     -3.50980000
  C      4.74441000     -1.54723000     -2.63957000
  O      5.75485000     -2.31483000     -2.94937000
  C     -4.22960000      2.80666000     -3.42526000
  O     -4.44405000      3.06274000     -4.66487000
  C     -1.10639000      1.81638000      5.52363000
  O     -0.67857500      2.40009000      6.57945000
  C      1.87557000      2.52342000      5.28701000
  O      2.35517000      2.42716000      6.47019000
  C     -0.84088700     -0.15962800     -5.84446000
  O     -1.11573000     -0.53694500     -7.04106000
  C     -5.62369000     -0.64853900      0.30350600
  O     -6.91826000     -0.69821200      0.15420200
  C      5.73656000     -0.96704500      0.79867400
  O      6.91506000     -1.43001000      0.81777500
  C      2.04317000     -4.49684000      2.54603000
  O      2.47640000     -5.19806000      3.50694000
