110
Energy = -11666.10697207 au
 Ni      0.06537550     -3.63169000     -2.22627000
 Ni     -1.37477000     -0.20736300     -1.18372000
 Ni      0.66460200     -4.38549000      0.33261300
 Ni     -0.48265300      4.25645000     -0.35228900
 Ni     -1.19149000      2.43158000     -2.05465000
 Ni     -3.16576000      0.58709800      0.71208300
 Ni     -0.95261200     -0.84584200      1.33367000
 Ni      0.05213540      3.57589000      2.51182000
 Ni      0.29522300     -0.97455900     -3.14563000
 Ni      3.22748000     -0.53604200     -0.71909900
 Ni      0.75816500     -1.65356000     -0.52364400
 Ni      2.61210000     -2.30646000     -2.36722000
 Ni      3.49192000      2.20066000     -1.46277000
 Ni      1.92159000     -0.45278700      3.96200000
 Ni      1.37824000      0.24620900      1.22185000
 Ni      2.81422000      0.14508200     -3.08578000
 Ni      1.16989000      3.51239000     -2.17607000
 Ni     -2.01816000     -2.20907000     -2.97853000
 Ni      3.47470000     -1.12919000      1.80314000
 Ni     -1.61837000     -2.81265000     -0.46202100
 Ni      3.78919000      1.38752000      1.24160000
 Ni      0.97448900      0.90412100     -1.32763000
 Ni     -1.75812000      0.48217600     -3.73343000
 Ni     -3.69182000     -1.33596000     -1.05091000
 Ni      2.21228000      2.19823000      3.11681000
 Ni     -0.31664400      1.07528000      3.30329000
 Ni      3.07952000     -3.12296000      0.15301800
 Ni     -1.13829000     -3.35282000      2.06141000
 Ni     -2.94013000      3.22006000     -0.08183020
 Ni      1.64546000      2.79980000      0.41882900
 Ni     -2.45343000      2.47412000      2.60470000
 Ni     -2.65466000     -0.11833500      3.51634000
 Ni      0.41169600      1.67350000     -3.94703000
 Ni     -0.74311700      1.67327000      0.56488500
 Ni     -3.28676000     -1.96643000      1.54737000
 Ni     -0.45075200     -1.43256000      3.89324000
 Ni     -3.63522000      1.23098000     -1.68572000
 Ni      1.21569000     -2.39038000      2.10784000
  C      3.78036000      3.33037000     -3.54112000
  O      4.66990000      3.89752000     -4.27968000
  C      1.48672000      5.81190000     -0.80494300
  O      1.50535000      7.14281000     -0.75523600
  C      3.17189000      4.90340000     -0.68472300
  O      3.68814000      6.08748000     -0.44669100
  C     -2.76688000      4.63122000      3.36290000
  O     -3.38328000      5.63887000      3.82871000
  C      4.14757000      1.10276000      4.73621000
  O      4.51390000      1.80381000      5.77025000
  C      0.33196500      0.16512200      5.72566000
  O      0.23152300      0.53326400      6.94411000
  C     -0.23369100      4.58140000      4.44137000
  O      0.37700000      5.19106000      5.37747000
  C     -1.37394000      4.67886000     -2.96042000
  O     -2.05577000      5.50363000     -3.68851000
  C      5.05290000     -2.34496000     -0.87868900
  O      6.36763000     -2.61163000     -0.96063000
  C     -2.39442000     -4.69123000     -1.98848000
  O     -3.07464000     -5.77467000     -2.10113000
  C      3.65351000     -0.25160600      5.19865000
  O      4.31692000     -0.71926400      6.18613000
  C      1.28393000     -5.75154000     -1.84918000
  O      1.77002000     -6.81990000     -2.34047000
  C     -3.63594000      2.23227000      4.87813000
  O     -3.98857000      2.67213000      5.99588000
  C      1.51501000     -5.64467000      1.75697000
  O      1.24508000     -6.74067000      2.37476000
  C     -2.20327000      0.45523800      5.43498000
  O     -2.51482000      0.20928300      6.66172000
  C     -2.75352000      5.01827000     -1.64405000
  O     -3.63829000      5.98716000     -2.01553000
  C      2.41585000      4.60079000      2.73392000
  O      3.11609000      5.62760000      3.03160000
  C      1.54974000     -3.97468000      3.79613000
  O      1.63267000     -5.18150000      4.22228000
  C      5.15154000     -0.19971400     -2.59411000
  O      6.37654000      0.14058800     -2.72073000
  C     -0.99049500     -2.32015000     -5.17118000
  O     -1.02977000     -2.78030000     -6.35473000
  C     -0.54735200      4.08822000     -4.21799000
  O      0.00369051      4.94293000     -5.02333000
  C     -3.79509000      4.70700000      1.68808000
  O     -4.47645000      5.76009000      1.61955000
  C     -1.80118000      1.91913000      5.15714000
  O     -1.37147000      2.52812000      6.21129000
  C     -1.67996000      4.35759000      4.53260000
  O     -2.25174000      4.49875000      5.71007000
  C     -1.43078000      2.96015000     -4.77098000
  O     -2.29088000      3.50075000     -5.54659000
  C     -5.45498000      1.45552000      0.42698900
  O     -6.48981000      1.36534000      1.19032000
  C     -3.85340000     -2.17559000      4.18647000
  O     -4.52268000     -2.67625000      5.16017000
  C      0.91205100      2.63008000      5.05350000
  O      0.93682200      2.94792000      6.26739000
  C      4.16130000     -4.87107000      1.12843000
  O      5.21982000     -5.56826000      1.31341000
  C     -5.66547000      2.08315000     -0.83779700
  O     -6.82101000      2.55021000     -1.13335000
  C      4.87908000     -1.63268000     -2.94446000
  O      5.84799000     -2.31476000     -3.43284000
  C      1.78916000     -2.90304000      4.72361000
  O      2.23540000     -3.22829000      5.88554000
  C      0.21092900     -0.11437000     -5.70434000
  O      0.38342900     -0.40270900     -6.92031000
  C      2.89385000     -5.11093000      1.94039000
  O      3.60692000     -5.36552000      3.02133000
  C      4.36971000      4.06527000     -0.83525900
  O      5.55676000      4.55097000     -0.75377700
  C      4.72573000      1.68847000      3.42996000
  O      5.91625000      2.09723000      3.64822000
