#B3LYP/6-31+G(d) OPT FREQ

110, Energy = -11181.71198652 au

0 1
 Ni      0.08852600     -3.56744000     -2.23244000
 Ni     -1.38031000     -0.22243400     -1.16045000
 Ni      0.48335200     -4.21625000      0.20893300
 Ni     -0.51548500      4.19057000     -0.20536900
 Ni     -1.15743000      2.27923000     -1.97468000
 Ni     -3.16720000      0.49425100      0.69456600
 Ni     -0.95858900     -0.86491400      1.29629000
 Ni     -0.02643560      3.50353000      2.23659000
 Ni      0.29208800     -0.95401400     -2.96847000
 Ni      3.16391000     -0.50464200     -0.67143900
 Ni      0.72328100     -1.61723000     -0.53303800
 Ni      2.46029000     -2.39004000     -2.35065000
 Ni      3.43039000      2.04613000     -1.41745000
 Ni      1.88903000     -0.40819700      3.72428000
 Ni      1.38030000      0.23114900      1.16841000
 Ni      2.63271000      0.16471700     -3.12681000
 Ni      1.15072000      3.41167000     -2.15528000
 Ni     -2.04313000     -2.11289000     -2.86740000
 Ni      3.52849000     -1.19973000      1.89898000
 Ni     -1.60658000     -2.75025000     -0.41585500
 Ni      3.78413000      1.40432000      1.05109000
 Ni      0.95688800      0.87546300     -1.28892000
 Ni     -1.84112000      0.51602000     -3.66408000
 Ni     -3.77297000     -1.29005000     -1.00994000
 Ni      2.09837000      2.12365000      2.91682000
 Ni     -0.31774000      0.95537400      3.07196000
 Ni      2.88968000     -3.03771000      0.08398050
 Ni     -1.26271000     -3.43271000      2.08986000
 Ni     -2.87077000      3.04162000     -0.03710280
 Ni      1.65880000      2.75482000      0.43387300
 Ni     -2.44241000      2.37608000      2.39613000
 Ni     -2.74273000     -0.17721400      3.22042000
 Ni      0.45412700      1.63659000     -3.83639000
 Ni     -0.72103300      1.61545000      0.53473500
 Ni     -3.33236000     -1.98063000      1.47648000
 Ni     -0.55934000     -1.47806000      3.82897000
 Ni     -3.60007000      1.20332000     -1.81186000
 Ni      1.15853000     -2.25141000      1.91993000
  C     -3.30447000     -2.82486000      4.37084000
  O     -3.69087000     -3.35325000      5.48616000
  C     -3.19489000      2.74370000     -4.12396000
  O     -4.13913000      3.51414000     -4.64218000
  C      3.13608000      1.63206000      5.48942000
  O      4.11040000      1.79252000      6.31823000
  C     -3.32139000      4.74577000      2.33005000
  O     -4.08198000      5.61224000      3.03291000
  C     -5.63313000     -2.11240000      2.47364000
  O     -6.87861000     -1.84978000      2.66981000
  C      5.56309000     -0.58351700     -0.88963400
  O      6.68777000     -1.21577000     -0.88345500
  C     -2.40397000      5.54769000      1.32124000
  O     -2.67909000      6.85333000      1.41701000
  C     -5.34082000      2.99307000     -0.13848200
  O     -6.48026000      3.60608000      0.36623000
  C     -0.15152600      0.11347000      5.89678000
  O      0.09291920      0.07154240      7.15196000
  C      3.60811000      4.33811000      1.29250000
  O      4.33431000      5.28264000      1.58218000
  C     -1.54481000      3.12522000     -4.76858000
  O     -2.20214000      3.67283000     -5.75719000
  C      5.01243000     -2.92128000     -1.49904000
  O      6.23088000     -3.24556000     -1.77149000
  C      4.81949000      0.61240100      3.67804000
  O      5.79226000      0.76913500      4.51066000
  C      1.31045000     -5.47261000      2.22647000
  O      1.78687000     -6.43989000      2.93187000
  C      5.71048000      0.80636800     -1.36267000
  O      6.70347000      0.86350400     -2.19182000
  C      4.54267000      3.87763000     -0.14608700
  O      5.36466000      4.87781000     -0.46964300
  C      2.38790000      4.79459000      2.46020000
  O      2.67428000      5.98017000      2.98360000
  C     -4.09349000     -1.07257000      4.88740000
  O     -4.75077000     -1.39969000      5.94686000
  C     -1.11473000      1.08437000      5.50783000
  O     -1.56905000      1.82551000      6.46080000
  C     -2.37870000     -4.82248000     -2.30467000
  O     -3.03095000     -5.91594000     -2.51203000
  C     -5.17077000      0.60499700      2.56407000
  O     -6.45961000      0.90060200      2.45124000
  C     -5.78442000      0.06633070      0.18534800
  O     -6.95346000     -0.25222500      0.62966000
  C      3.10717000      4.05131000     -3.62603000
  O      3.69526000      4.72041000     -4.55754000
  C     -0.53922600      4.17155000     -4.09407000
  O     -0.63145700      5.36023000     -4.64466000
  C      3.50839000     -0.93836100      5.60016000
  O      4.49365000     -0.68318600      6.38981000
  C     -0.07157450      2.91865000     -5.85932000
  O     -0.06711000      3.77125000     -6.80010000
  C      2.95345000     -5.13572000     -1.91526000
  O      3.93951000     -5.92031000     -2.16518000
  C     -5.77381000      1.34264000     -0.60187700
  O     -7.00465000      1.64502000     -0.92196700
  C      3.52449000     -2.89577000      3.82577000
  O      3.77168000     -3.43383000      4.97873000
  C      1.65655000     -5.65956000     -2.13964000
  O      1.63225000     -6.83015000     -2.59942000
  C     -2.05192000     -5.50527000      0.60038800
  O     -2.73729000     -6.59373000      0.50449900
  C     -4.88392000      0.28594500      4.19170000
  O     -5.98988000      0.64376900      4.74306000
  C      6.06652000      2.22245000     -0.44900000
  O      7.36798000      2.29554000     -0.36412100
  C     -3.18328000     -4.14944000      3.53485000
  O     -3.75376000     -5.23581000      4.04799000
  C     -1.66316000      5.73363000     -1.75970000
  O     -2.06162000      6.70633000     -2.50251000
  C      4.03534000     -3.59935000      2.72156000
  O      4.68748000     -4.68464000      2.99404000

