110
Energy = -12322.93790140 au
 Ni      0.10110600     -3.47630000     -2.48372000
 Ni     -1.43267000     -0.28465800     -1.24331000
 Ni      0.89733400     -4.39475000      0.22375700
 Ni     -0.67438300      4.54168000     -0.26662700
 Ni     -1.27475000      2.32467000     -2.12339000
 Ni     -3.19257000      0.49254100      0.61072600
 Ni     -0.93654200     -0.87834700      1.27900000
 Ni     -0.26620600      3.56944000      2.22471000
 Ni      0.34575300     -1.05905000     -3.08525000
 Ni      3.33990000     -0.70200000     -0.72455400
 Ni      0.76517300     -1.72533000     -0.51893400
 Ni      2.55352000     -2.62835000     -2.25827000
 Ni      3.37961000      1.77578000     -1.47599000
 Ni      2.08439000     -0.67934000      4.07897000
 Ni      1.52599000      0.17152900      1.22707000
 Ni      2.89711000     -0.12526600     -3.39302000
 Ni      1.15816000      3.34294000     -1.99521000
 Ni     -2.08746000     -2.29144000     -3.03033000
 Ni      3.82664000     -1.34137000      2.10130000
 Ni     -1.73224000     -2.83463000     -0.53030500
 Ni      3.99897000      1.20894000      1.21062000
 Ni      0.98872800      0.77338800     -1.35098000
 Ni     -1.75344000      0.38496800     -3.76871000
 Ni     -3.89251000     -1.60532000     -1.03433000
 Ni      2.29714000      1.98544000      3.05420000
 Ni     -0.20914300      0.90603900      3.15975000
 Ni      3.06136000     -3.31705000      0.09027170
 Ni     -1.14846000     -3.29302000      1.99527000
 Ni     -2.79030000      3.17907000     -0.07962140
 Ni      1.60748000      2.65845000      0.46930600
 Ni     -2.45140000      2.54813000      2.60814000
 Ni     -2.49193000     -0.20345700      3.22708000
 Ni      0.67780900      1.28130000     -3.94000000
 Ni     -0.75649100      1.62044000      0.51261900
 Ni     -3.46297000     -1.99274000      1.34980000
 Ni     -0.43238400     -1.74776000      4.30433000
 Ni     -3.63418000      1.26984000     -1.87792000
 Ni      1.28120000     -2.32025000      2.10383000
  C     -0.13558900     -0.79264800     -5.63528000
  O     -0.60016700     -0.45570100     -6.78310000
  C     -4.02598000     -3.80476000     -0.76799500
  O     -4.82406000     -4.66543000     -0.23929200
  C     -1.97475000      3.16213000      4.53776000
  O     -2.56627000      3.44301000      5.61774000
  C      1.47166000      0.06697080      6.13324000
  O      0.98100000      0.67587800      7.13993000
  C      2.34454000     -5.44001000     -1.07990000
  O      2.38451000     -6.72751000     -1.16545000
  C     -0.17255800     -3.37306000     -4.55051000
  O      0.13629200     -4.28085000     -5.39648000
  C      3.48225000      3.09399000      4.54015000
  O      4.00744000      3.58162000      5.61978000
  C     -0.95526500     -0.11858500      5.40344000
  O     -1.27401000      0.09198500      6.67434000
  C      3.07365000     -2.71416000      4.31910000
  O      3.84318000     -2.63249000      5.33680000
  C      1.45091000     -0.19579500     -5.79894000
  O      1.60522000      0.39620700     -6.92784000
  C      3.45472000     -4.61676000      1.85397000
  O      4.50989000     -5.35952000      1.77665000
  C      6.04338000      1.39330000      1.98969000
  O      7.06990000      1.20960000      2.72813000
  C      4.24926000      1.83510000      4.28162000
  O      5.53381000      1.97696000      4.12541000
  C      6.07572000     -0.46280500      0.08802600
  O      7.24512000     -0.81304000      0.48290400
  C     -5.38318000     -0.90585500      0.55622000
  O     -6.68272000     -0.80857900      0.76170700
  C      3.38592000     -4.64619000     -1.85413000
  O      4.32007000     -5.23946000     -2.50502000
  C      1.18561000      5.80784000     -0.30791900
  O      1.45370000      7.01413000      0.00682250
  C      2.01226000     -5.19894000      1.69304000
  O      1.96171000     -6.37336000      2.21618000
  C      5.16894000     -0.72419400      3.27957000
  O      6.15540000     -0.95987100      4.05608000
  C     -5.44095000      1.97206000     -0.74553600
  O     -6.70716000      1.92283000     -0.89030000
  C     -0.76915200     -3.58707000      5.39603000
  O     -0.28919400     -4.64543000      5.94669000
  C      3.90864000      0.49818000      5.13360000
  O      4.97507000      0.44054800      5.85199000
  C     -1.98618000      5.11045000     -1.74727000
  O     -2.18864000      6.38456000     -1.74527000
  C      4.84762000      0.22546600     -2.74887000
  O      6.10647000     -0.01580980     -3.07401000
  C     -0.86709900     -2.20072000     -5.34014000
  O     -1.68002000     -2.49985000     -6.27226000
  C      1.47761000     -2.83873000      4.60556000
  O      1.64724000     -3.63804000      5.61056000
  C      2.91072000     -0.20258600      6.28395000
  O      3.53047000     -0.74477000      7.27475000
  C      3.78432000     -3.39799000      2.98307000
  O      4.81591000     -3.82037000      3.62949000
  C      2.68752000     -0.79835300     -5.13734000
  O      3.43863000     -1.44104000     -5.96245000
  C     -2.33821000      4.42009000     -3.10994000
  O     -2.45572000      5.25707000     -4.08374000
  C      6.14545000      1.17095000      0.50639500
  O      7.02652000      1.85944000     -0.15173000
  C     -3.37139000     -3.95932000     -2.14770000
  O     -3.66772000     -4.99285000     -2.85224000
  C     -2.16292000      4.90516000      1.72345000
  O     -2.68529000      6.04730000      2.21207000
  C     -1.98043000     -2.89314000      5.24963000
  O     -3.14761000     -3.10999000      5.74711000
  C     -2.70646000      3.00919000     -3.63130000
  O     -3.18644000      3.12104000     -4.82202000
  C      5.22421000     -1.33283000     -0.77128900
  O      5.89874000     -2.17193000     -1.48503000
