#B3LYP/6-31+G(d) OPT FREQ

110, Energy = -12245.15833217 au

0 1
 Ni      0.12666500     -4.01691000     -2.26805000
 Ni     -1.51994000     -0.23990400     -1.15969000
 Ni      0.87070300     -4.36198000      0.30949600
 Ni     -0.33700800      4.40111000     -0.19132900
 Ni     -1.27934000      2.58339000     -2.17381000
 Ni     -3.43387000      0.67944900      0.74918800
 Ni     -1.06321000     -0.87773400      1.34362000
 Ni      0.00296253      3.39077000      2.29850000
 Ni      0.34006300     -1.00523000     -3.25388000
 Ni      3.38519000     -0.49425500     -0.68870900
 Ni      0.67328400     -1.70009000     -0.49475100
 Ni      2.38169000     -2.30136000     -2.34451000
 Ni      3.47625000      1.92318000     -1.39359000
 Ni      1.97471000     -0.72246700      3.86433000
 Ni      1.44712000      0.21967800      1.22704000
 Ni      2.74944000      0.31782700     -3.33705000
 Ni      1.18270000      3.79292000     -2.06503000
 Ni     -1.92943000     -2.28602000     -3.25767000
 Ni      3.79736000     -1.08166000      1.90927000
 Ni     -1.90329000     -2.98910000     -0.54438900
 Ni      3.96270000      1.27533000      1.29857000
 Ni      0.96298100      0.92061400     -1.34577000
 Ni     -1.77927000      0.41010200     -3.63447000
 Ni     -3.91582000     -1.35748000     -0.89331900
 Ni      2.09710000      2.00669000      3.13266000
 Ni     -0.26639800      0.97679800      3.11238000
 Ni      3.05220000     -2.94440000      0.12751400
 Ni     -1.19852000     -3.53403000      1.99289000
 Ni     -3.01007000      3.21515000      0.05421560
 Ni      1.87587000      2.95044000      0.43788200
 Ni     -2.47183000      2.49406000      2.37478000
 Ni     -2.94589000     -0.13173900      3.65905000
 Ni      0.71568500      1.53574000     -4.04826000
 Ni     -0.76758100      1.67946000      0.47908000
 Ni     -3.46573000     -1.96066000      1.50694000
 Ni     -0.59028200     -1.42777000      3.90051000
 Ni     -3.85862000      1.68214000     -1.78071000
 Ni      1.29599000     -2.49669000      2.15594000
  C     -3.93957000      3.35662000     -2.73146000
  O     -4.93351000      4.14388000     -2.98486000
  C      1.25629000     -5.53506000     -2.53586000
  O      1.50803000     -6.19261000     -3.61737000
  C      1.19682000      2.45090000      4.95327000
  O      0.61859500      3.37296000      5.63422000
  C     -3.71651000     -1.85140000      4.46021000
  O     -4.39665000     -1.97394000      5.54413000
  C      2.58213000     -3.98291000      3.34480000
  O      3.76635000     -4.34997000      3.56650000
  C      4.36069000      1.32068000      3.98361000
  O      5.01093000      2.29779000      4.52620000
  C     -5.87762000     -0.40228100      1.66471000
  O     -7.05583000     -0.04509600      1.82222000
  C      3.13248000      1.87445000     -4.65656000
  O      3.97302000      2.21021000     -5.57769000
  C      5.25301000      0.72474000     -1.21894000
  O      6.49348000      0.63391800     -1.66010000
  C     -2.70480000      1.05932000      5.24831000
  O     -3.25596000      1.99818000      5.92542000
  C      1.95416000      1.36396000      5.70502000
  O      1.66174000      1.03998000      6.91266000
  C     -2.85080000     -3.34193000     -4.97528000
  O     -2.43411000     -3.54790000     -6.17050000
  C      1.97700000      5.36641000     -0.95687600
  O      2.12698000      6.60561000     -1.29586000
  C      2.75394000      4.71201000      0.16588200
  O      3.74570000      5.30721000      0.72582600
  C      1.58367000     -5.80441000     -1.14202000
  O      2.28956000     -6.86107000     -0.91217100
  C     -2.58873000      3.47595000     -3.36918000
  O     -2.44370000      4.19947000     -4.42583000
  C      3.43534000     -0.76672900      5.39114000
  O      4.17022000     -1.38869000      6.23287000
  C      0.75701300      0.26925500     -5.66016000
  O      0.87003400      0.31459900     -6.95463000
  C      4.96264000     -2.03431000     -0.05463800
  O      6.23208000     -2.36013000     -0.41188800
  C      1.88040000     -2.88107000      4.27471000
  O      1.99484000     -3.48822000      5.40596000
  C     -2.73574000     -5.10904000      1.48289000
  O     -2.98587000     -6.33910000      1.67537000
  C     -5.52115000     -0.90080200      0.26251300
  O     -6.66715000     -0.98514600     -0.33977900
  C     -0.20415100      6.62235000      0.48910900
  O      0.72061000      7.51654000      0.56545900
  C      1.64058000     -4.74222000      2.31031000
  O      1.63426000     -5.91336000      2.84354000
  C     -4.88191000     -0.24763500      2.82258000
  O     -5.70296000     -0.07271470      3.81877000
  C     -5.47341000      2.19919000     -0.88932900
  O     -6.57273000      2.69645000     -1.32948000
  C      5.09187000      0.42132300      2.89327000
  O      6.35514000      0.21718400      3.05527000
  C     -3.03241000      4.70334000      1.56228000
  O     -3.66406000      5.80004000      1.87330000
  C     -5.14297000      2.00892000      0.58453700
  O     -6.09657000      2.19177000      1.43995000
  C     -3.18434000     -4.42077000     -1.14948000
  O     -3.26010000     -5.51757000     -1.81505000
  C     -1.34405000     -5.33314000     -3.09352000
  O     -1.51062000     -6.58701000     -2.89952000
  C     -4.20408000     -3.80056000     -0.27815700
  O     -5.21961000     -4.52856000      0.03841110
  C     -1.62809000      0.10128200      5.56639000
  O     -1.22581000     -0.05987860      6.77830000
  C      3.59999000      0.75488000      5.46845000
  O      4.23256000      1.26673000      6.50131000
  C     -0.46722100     -1.93342000     -4.97848000
  O     -0.14157600     -2.30900000     -6.20407000
  C     -0.23030000      4.68751000     -3.20136000
  O     -0.35550700      5.67822000     -4.04575000

