110
Energy = -12214.76355697 au
 Ni      0.05187190     -3.56094000     -2.42948000
 Ni     -1.37867000     -0.23735500     -1.19618000
 Ni      0.49576200     -4.47397000      0.01054060
 Ni     -0.82450300      4.53299000     -0.33252000
 Ni     -1.26303000      2.53867000     -2.08938000
 Ni     -3.39009000      0.51727100      0.80731200
 Ni     -1.02097000     -0.93861300      1.30315000
 Ni     -0.16828000      3.45107000      2.15354000
 Ni      0.44968600     -0.99573300     -3.41030000
 Ni      3.33332000     -0.58591900     -0.86680600
 Ni      0.76433300     -1.70664000     -0.59712600
 Ni      2.58782000     -2.53238000     -2.53741000
 Ni      3.57693000      1.91685000     -1.51719000
 Ni      1.72990000     -0.38991100      3.79471000
 Ni      1.40540000      0.18454700      1.12060000
 Ni      2.91837000      0.17261400     -3.71411000
 Ni      1.01612000      3.53375000     -2.25996000
 Ni     -2.02809000     -2.25169000     -2.90877000
 Ni      3.64874000     -1.22536000      1.71510000
 Ni     -1.69804000     -2.87339000     -0.41085300
 Ni      3.82358000      1.32934000      0.87715800
 Ni      1.01925000      0.88928300     -1.41714000
 Ni     -1.88848000      0.52120200     -3.71631000
 Ni     -3.83769000     -1.29359000     -1.27334000
 Ni      2.03514000      2.05306000      2.82976000
 Ni     -0.36447000      0.93896500      3.00632000
 Ni      2.91071000     -3.24891000      0.34608000
 Ni     -1.25301000     -3.51774000      1.98044000
 Ni     -2.80165000      3.27227000     -0.01768720
 Ni      1.69407000      2.86524000      0.30340300
 Ni     -2.72653000      2.49345000      2.45905000
 Ni     -2.75865000     -0.19119800      3.09553000
 Ni      0.73384400      1.74116000     -4.10984000
 Ni     -0.78604200      1.64098000      0.49365900
 Ni     -3.74464000     -2.29824000      1.47829000
 Ni     -0.60794200     -1.53533000      4.03335000
 Ni     -3.59068000      0.97801300     -2.02511000
 Ni      1.19599000     -2.48665000      1.92317000
  C     -1.82969000      5.82833000      0.79770700
  O     -1.72546000      7.08852000      1.08894000
  C     -1.86008000     -5.60681000      1.39336000
  O     -1.77721000     -6.88005000      1.39706000
  C     -4.08253000     -4.11191000      1.24047000
  O     -5.25880000     -4.63900000      1.35402000
  C     -4.49034000      0.17389900     -4.09545000
  O     -4.97177000      0.41764300     -5.24075000
  C      0.45738000     -3.01324000     -4.57947000
  O      0.58017800     -3.43205000     -5.84642000
  C      5.40268000      0.63449800     -2.38579000
  O      6.20052000      1.10140000     -3.29693000
  C      5.44978000     -1.86241000      0.49029700
  O      6.70922000     -1.95161000      0.60866700
  C     -1.22717000      2.78002000     -4.81375000
  O     -1.49328000      3.61941000     -5.81385000
  C      4.80882000     -0.82974900     -2.61739000
  O      5.91629000     -1.49496000     -2.81529000
  C     -5.54295000     -2.14188000      2.13935000
  O     -6.60758000     -2.82298000      2.43235000
  C     -2.23387000     -4.54322000     -2.79825000
  O     -2.96359000     -5.56225000     -3.12643000
  C     -5.53222000     -0.73250300      1.80771000
  O     -6.71394000     -0.24702800      1.83407000
  C      0.47288000     -0.10925700      5.68946000
  O      0.52147200      0.25967500      6.92028000
  C     -4.71512000      3.19373000      2.66800000
  O     -5.76866000      3.99047000      2.36288000
  C      2.97484000     -5.34139000     -2.03478000
  O      3.24218000     -6.57112000     -2.31242000
  C     -0.99871600      5.47832000     -2.56418000
  O     -0.98433300      6.75775000     -2.49269000
  C      2.23332000      2.61270000     -5.08521000
  O      2.35811000      3.66284000     -5.82142000
  C      3.54439000     -4.24599000      2.04566000
  O      4.57415000     -4.78928000      2.61435000
  C      0.03061610      4.73866000     -3.44093000
  O     -0.12117700      5.31396000     -4.60069000
  C      2.16499000     -4.59388000      2.47213000
  O      1.97483000     -5.59789000      3.25339000
  C      0.56055100     -6.35968000     -1.34047000
  O      1.13908000     -7.38110000     -1.85090000
  C     -2.43333000     -2.58974000      4.92661000
  O     -2.71947000     -3.17223000      6.03047000
  C      3.61861000      4.17376000      0.06019000
  O      4.06707000      5.32524000      0.33186200
  C     -2.24647000      4.50570000     -2.27032000
  O     -3.02920000      5.11509000     -3.07410000
  C     -3.07197000     -5.13772000      0.66593700
  O     -3.62393000     -5.93522000     -0.20762900
  C      2.70053000     -5.60459000     -0.24083900
  O      3.09273000     -6.84474000      0.13719600
  C      3.06759000     -4.36607000     -3.11588000
  O      3.54740000     -4.88809000     -4.20305000
  C     -0.78683500     -6.03866000     -1.05959000
  O     -1.73666000     -6.88479000     -1.21577000
  C     -3.80051000      3.87824000      3.56424000
  O     -3.87988000      4.93236000      4.31594000
  C     -4.85047000      1.74317000      2.18456000
  O     -6.12450000      1.65667000      2.40544000
  C      3.36035000      1.71371000     -4.84532000
  O      4.43692000      1.81399000     -5.55268000
  C      5.55764000      0.80264200     -0.81992100
  O      6.78020000      0.57355900     -0.53459600
  C      0.99711700     -0.63916900     -5.47329000
  O      0.46065400     -0.94645000     -6.59347000
  C      2.49021000     -0.56277300     -5.38345000
  O      3.25258000     -0.78133800     -6.39708000
  C     -5.05732000     -0.81235700     -3.16799000
  O     -6.10237000     -1.45552000     -3.53346000
  C     -3.03414000      5.18841000      1.29309000
  O     -3.90760000      5.82764000      1.98044000
