110
Energy = -12249.65419954 au
 Ni      0.03891850     -3.42161000     -2.17171000
 Ni     -1.42178000     -0.22553600     -1.14443000
 Ni      0.62506500     -4.15006000      0.41938300
 Ni     -0.31927700      4.29360000     -0.11056000
 Ni     -1.19318000      2.25335000     -1.97967000
 Ni     -3.27842000      0.54473300      0.93223400
 Ni     -1.00301000     -0.92279000      1.50230000
 Ni     -0.29256400      3.48577000      2.37750000
 Ni      0.23540600     -0.89826900     -3.09320000
 Ni      3.29067000     -0.56581800     -0.61688600
 Ni      0.84638000     -1.63966000     -0.42595500
 Ni      2.75742000     -2.36695000     -2.20501000
 Ni      3.66144000      2.00079000     -1.66339000
 Ni      2.20857000     -0.55888500      4.10304000
 Ni      1.45346000      0.17593800      1.38689000
 Ni      2.66902000      0.27282500     -3.12793000
 Ni      1.40109000      3.23525000     -2.18808000
 Ni     -2.22737000     -2.35741000     -2.88928000
 Ni      3.76390000     -1.25370000      1.98412000
 Ni     -1.67802000     -2.78270000     -0.23482900
 Ni      3.91004000      1.21988000      1.07921000
 Ni      1.02462000      0.85247100     -1.24294000
 Ni     -1.99036000      0.27046000     -3.86364000
 Ni     -3.74289000     -1.27731000     -1.04214000
 Ni      2.25509000      2.00359000      3.26358000
 Ni     -0.37162800      1.06802000      3.44388000
 Ni      3.29407000     -3.35007000      0.26719000
 Ni     -1.36923000     -3.57129000      2.37439000
 Ni     -2.99363000      3.05675000      0.21654200
 Ni      1.65933000      2.70350000      0.49866600
 Ni     -2.60824000      2.66938000      2.64195000
 Ni     -3.09211000     -0.43467800      3.42941000
 Ni      0.22444500      1.62317000     -4.05032000
 Ni     -0.76710100      1.60355000      0.66681400
 Ni     -3.45024000     -2.22057000      1.74729000
 Ni     -0.41177200     -1.65680000      4.12083000
 Ni     -3.89746000      1.09061000     -1.91487000
 Ni      1.33145000     -2.41691000      2.16160000
  C     -0.84226200     -0.25522800     -5.41407000
  O     -1.02233000     -0.63044300     -6.66677000
  C     -2.63308000      4.68543000      2.04764000
  O     -3.26188000      5.74514000      2.53484000
  C      3.99044000      0.53532900      3.98535000
  O      4.89857000      0.62656300      4.98150000
  C      5.91339000      0.63255600     -0.33794600
  O      7.07179000      1.15024000     -0.14983000
  C      4.76490000     -2.70437000     -1.96332000
  O      5.69838000     -2.58808000     -2.85007000
  C     -5.72763000      1.71751000      0.35847900
  O     -6.83340000      1.29377000      0.84780100
  C     -2.76110000      0.28131600      5.71486000
  O     -2.93984000      0.40051400      6.98788000
  C      2.05111000     -0.95830900      6.46771000
  O      2.25800000     -1.49699000      7.64854000
  C     -2.67451000     -4.25450000     -2.80064000
  O     -3.60303000     -5.00829000     -3.27829000
  C     -4.44713000     -0.03261110     -3.52527000
  O     -5.51136000     -0.06550820     -4.29702000
  C     -4.73774000      2.44484000      1.33384000
  O     -5.46031000      2.99620000      2.26134000
  C     -1.88947000      3.20020000      4.38197000
  O     -1.93403000      4.35541000      4.96142000
  C     -1.84023000      1.83410000      5.15415000
  O     -1.70269000      2.12980000      6.41490000
  C      3.36766000     -5.64689000      0.38577400
  O      3.92764000     -6.51043000      1.16238000
  C     -0.75847200      3.12283000     -4.54953000
  O     -0.94961200      3.90208000     -5.54868000
  C      0.78044100      2.54477000      5.07180000
  O      0.29016400      2.92926000      6.20983000
  C      3.54442000     -2.11999000      4.32011000
  O      4.19171000     -2.35547000      5.41028000
  C      1.29244000      5.50865000      0.38474900
  O      1.54181000      6.79421000      0.38122100
  C     -3.92053000     -2.68927000      3.58658000
  O     -5.15848000     -2.85789000      3.94779000
  C     -3.20400000     -4.39277000      1.27757000
  O     -3.93809000     -5.46267000      1.29712000
  C      3.86526000     -3.60299000      2.17052000
  O      4.79201000     -4.49310000      2.32636000
  C      5.15248000      0.74728600     -1.75977000
  O      6.08843000      0.65609600     -2.64498000
  C     -1.06435000     -1.86435000      5.95884000
  O     -0.87246300     -1.32986000      7.13707000
  C      1.55793000      0.18506800      6.16627000
  O      1.16279000      1.01263000      7.10607000
  C     -1.74632000     -3.09349000      5.62314000
  O     -1.85794000     -4.09244000      6.45772000
  C      5.03599000     -3.21513000     -0.56743300
  O      6.16985000     -3.59435000     -0.08171190
  C     -4.87443000     -0.11904200      2.88208000
  O     -6.01488000      0.14320600      3.47467000
  C      2.17318000      2.98703000      4.98936000
  O      2.94313000      3.63817000      5.78984000
  C      3.46671000      2.90289000     -3.47192000
  O      4.23946000      3.57505000     -4.31010000
  C      3.39166000     -3.51287000      3.69367000
  O      3.38013000     -4.64795000      4.28265000
  C     -5.53923000      1.64753000     -1.20090000
  O     -6.68390000      1.75208000     -1.78426000
  C      0.65145800     -4.84830000      2.55144000
  O      1.20014000     -5.80732000      3.29233000
  C      1.08280000     -2.98487000      4.48769000
  O      1.31440000     -3.94883000      5.38315000
  C     -2.71373000     -3.58976000      4.18624000
  O     -3.08297000     -4.80855000      4.44882000
  C      5.41973000     -0.62233600      0.58442600
  O      6.53070000     -1.23411000      0.80202800
  C     -3.39436000     -0.93747000      5.23073000
  O     -3.99798000     -1.89064000      5.85652000
