#B3LYP/6-31+G(d) OPT FREQ

110, Energy = -12102.03977456 au

0 1
 Ni     -0.09789910     -3.59468000     -2.18827000
 Ni     -1.36651000     -0.30289100     -1.20361000
 Ni      0.65876200     -4.28703000      0.31460500
 Ni     -0.23554900      4.32685000     -0.41776700
 Ni     -1.10619000      2.30111000     -2.01670000
 Ni     -3.21249000      0.50373300      0.72116700
 Ni     -0.91983700     -0.93984500      1.29114000
 Ni      0.02105140      3.44957000      2.20286000
 Ni      0.45302600     -0.91416100     -3.32112000
 Ni      3.42774000     -0.57537300     -0.71086200
 Ni      0.81470900     -1.69192000     -0.56120900
 Ni      2.69071000     -2.35630000     -2.38366000
 Ni      3.54036000      1.98330000     -1.90243000
 Ni      2.04772000     -0.22895500      3.78126000
 Ni      1.50352000      0.22635700      1.17136000
 Ni      2.79809000      0.14117100     -3.34556000
 Ni      1.24450000      3.52494000     -2.08102000
 Ni     -2.23158000     -2.10808000     -3.03238000
 Ni      4.05064000     -1.09498000      2.00587000
 Ni     -1.79905000     -3.15882000     -0.48475000
 Ni      4.08808000      1.13947000      1.10912000
 Ni      1.04915000      0.90380800     -1.38056000
 Ni     -1.82872000      0.27488400     -3.86246000
 Ni     -3.82787000     -1.57043000     -1.25063000
 Ni      2.34536000      2.16833000      2.99920000
 Ni     -0.31993200      0.94766500      2.99714000
 Ni      3.28777000     -3.55292000      0.22046200
 Ni     -1.06606000     -3.51384000      2.11969000
 Ni     -2.95156000      3.04915000      0.06913300
 Ni      1.84083000      3.00549000      0.36799000
 Ni     -2.62808000      2.57022000      2.31743000
 Ni     -2.78306000     -0.35954300      3.34091000
 Ni      0.47391800      1.57140000     -4.21028000
 Ni     -0.70709500      1.64977000      0.48740400
 Ni     -3.22960000     -2.00041000      1.40587000
 Ni     -0.51406100     -1.48671000      3.89515000
 Ni     -3.50516000      1.03112000     -1.85555000
 Ni      1.47960000     -2.49802000      2.03565000
  C      5.84359000     -1.52709000      1.01158000
  O      6.88101000     -1.96578000      1.62068000
  C     -3.51203000     -2.65129000      4.36057000
  O     -3.76533000     -3.82994000      4.78560000
  C     -5.16734000      1.68175000      0.78901300
  O     -6.43225000      1.52585000      1.17138000
  C     -3.82778000     -3.59226000     -1.76966000
  O     -4.54265000     -4.73320000     -1.81602000
  C     -3.50620000      4.62386000      2.11204000
  O     -3.47837000      5.83878000      2.54083000
  C      4.66260000      1.01232000      4.24385000
  O      5.52656000      1.93923000      4.46084000
  C     -0.55800200      3.04104000     -4.95440000
  O     -1.02011000      3.10043000     -6.16140000
  C      3.44227000     -4.55718000      1.72724000
  O      4.13924000     -5.63199000      1.85089000
  C     -3.87810000     -1.41835000      4.79897000
  O     -4.65306000     -1.22918000      5.82625000
  C      2.74001000      4.31753000      2.50837000
  O      3.59015000      5.22352000      2.95417000
  C      2.72524000     -5.15659000     -1.15515000
  O      3.43015000     -6.19883000     -1.42024000
  C      1.04267000      0.04219500     -5.61060000
  O      0.77695300      0.15444600     -6.86269000
  C      1.39446000      5.85612000     -0.81487700
  O      1.53602000      7.10273000     -1.14483000
  C      0.30211100     -5.38582000      2.45852000
  O      0.77626200     -6.24185000      3.27203000
  C     -4.37386000     -0.84531300     -3.62893000
  O     -5.40468000     -1.05626000     -4.48068000
  C      3.81314000      0.64615300     -5.41857000
  O      4.50904000      1.61160000     -5.91065000
  C      4.00975000      2.99262000     -3.46273000
  O      5.16321000      3.33511000     -3.92137000
  C      1.88545000     -1.10585000     -5.28994000
  O      2.41182000     -1.91844000     -6.09000000
  C      2.88160000      3.19164000     -4.39858000
  O      2.79068000      3.67596000     -5.56239000
  C      5.25676000     -2.87842000      0.13568600
  O      6.24278000     -3.72499000      0.33978100
  C      4.86772000     -2.16532000     -2.66977000
  O      5.63751000     -1.93555000     -3.76216000
  C     -0.41856800      5.14553000     -2.65884000
  O     -0.61953600      6.46408000     -2.93042000
  C     -4.66472000      3.79866000      1.78858000
  O     -5.94725000      3.96611000      1.83090000
  C     -1.66164000     -5.21728000     -1.64848000
  O     -2.08498000     -6.09800000     -2.48459000
  C     -2.28952000     -5.17100000     -0.24558000
  O     -3.03319000     -6.06080000      0.33763900
  C      5.11451000      0.41246800     -2.20022000
  O      6.24655000      0.67333300     -2.73640000
  C      5.42155000     -1.05422000     -1.67629000
  O      6.68031000     -1.39986000     -1.31110000
  C     -0.93587100      4.25531000     -4.18647000
  O     -1.58440000      5.18822000     -4.77684000
  C      4.97246000     -0.12082100      3.25239000
  O      6.21387000     -0.35208600      3.58603000
  C      2.56329000     -4.00307000      2.80128000
  O      2.63200000     -4.55447000      3.97414000
  C      5.69676000      0.05159510      0.63258600
  O      6.89659000      0.54154300      0.50545900
  C      5.14132000     -3.24219000     -1.53538000
  O      5.62456000     -4.22012000     -2.04656000
  C      2.36447000      5.03246000     -0.05767910
  O      3.41483000      5.68200000      0.34844800
  C     -1.31645000     -1.31942000     -5.31605000
  O     -1.30847000     -1.46468000     -6.61489000
  C      3.36806000      0.85154000      4.96837000
  O      3.74479000      1.08719000      6.18539000
  C     -0.30971600     -0.20600200      5.83019000
  O     -0.69269400     -0.24297200      7.05557000

