110
Energy = -12551.33614301 au
 Ni     -0.05049890     -3.82219000     -2.46431000
 Ni     -1.29984000     -0.31209300     -1.21076000
 Ni      0.52712200     -4.51299000      0.14143400
 Ni     -0.36280300      4.41532000     -0.36887600
 Ni     -1.24246000      2.64851000     -2.21506000
 Ni     -2.98505000      0.53851000      0.78488100
 Ni     -1.02383000     -0.96562900      1.38982000
 Ni     -0.01273830      3.67854000      2.24141000
 Ni      0.54175900     -1.07492000     -3.20496000
 Ni      3.16513000     -0.57165400     -0.73600800
 Ni      0.77595500     -1.76574000     -0.64222800
 Ni      2.75212000     -2.59823000     -2.65764000
 Ni      3.35028000      1.88546000     -1.47711000
 Ni      1.46988000     -0.33776200      3.76985000
 Ni      1.35177000      0.31987300      1.14439000
 Ni      2.86980000      0.03509800     -3.16458000
 Ni      1.32308000      3.50849000     -2.05272000
 Ni     -2.11428000     -2.62155000     -3.03496000
 Ni      3.37417000     -1.10322000      1.75918000
 Ni     -1.66842000     -3.14634000     -0.57235200
 Ni      3.83226000      1.66063000      1.00711000
 Ni      0.93704000      0.92702900     -1.40492000
 Ni     -1.64619000      0.10736300     -3.77562000
 Ni     -3.60321000     -1.47450000     -1.01083000
 Ni      2.15322000      2.36388000      2.80461000
 Ni     -0.50642200      1.07972000      3.25158000
 Ni      2.82927000     -3.28358000      0.04507130
 Ni     -1.05167000     -3.71608000      2.06076000
 Ni     -2.79984000      3.31947000     -0.10928000
 Ni      1.61035000      2.99034000      0.36108200
 Ni     -2.36236000      2.62183000      2.61304000
 Ni     -2.95860000     -0.09066910      3.42085000
 Ni      0.43942200      1.75233000     -3.92424000
 Ni     -0.72549900      1.76538000      0.55107500
 Ni     -3.65224000     -2.17762000      1.54595000
 Ni     -1.03942000     -1.52556000      4.15641000
 Ni     -3.37164000      1.16228000     -1.78066000
 Ni      1.05637000     -2.44020000      1.90618000
  C      4.96902000     -0.09928200     -2.25156000
  O      6.13886000      0.46189000     -2.25134000
  C     -1.55623000      5.24115000     -1.80716000
  O     -1.28079000      6.37350000     -2.37242000
  C      3.60331000      3.96662000      2.32531000
  O      3.80503000      5.16594000      2.76199000
  C      0.69442300     -7.35206000      0.94466700
  O      0.94585900     -8.51123000      0.35668600
  C      0.76982200     -5.53118000     -2.58377000
  O      0.90123900     -6.36979000     -3.55110000
  C     -2.00332000     -3.37852000      4.77441000
  O     -2.09482000     -4.54413000      5.28794000
  C     -3.98322000     -4.40869000      1.60557000
  O     -4.03982000     -5.58842000      2.10207000
  C      4.68840000     -1.49726000     -2.84532000
  O      5.57139000     -2.21503000     -3.45467000
  C      1.32375000     -6.30742000      1.97663000
  O      2.41865000     -6.88698000      2.38162000
  C      2.38137000      4.90297000     -1.29798000
  O      3.22939000      5.88604000     -1.54494000
  C     -4.86541000      0.01954850      3.44208000
  O     -5.61843000      0.80484100      4.13695000
  C     -2.24025000     -3.36639000     -4.85695000
  O     -2.90669000     -3.63150000     -5.91316000
  C     -1.49606000     -5.19855000      0.46113800
  O     -2.16325000     -6.41292000      0.35494000
  C      1.78452000     -5.86531000     -1.48891000
  O      2.03741000     -7.06921000     -1.08067000
  C      3.62914000     -4.98964000     -0.26546500
  O      4.20686000     -5.99960000      0.27484200
  C     -3.04280000      4.56761000      1.98226000
  O     -3.61455000      5.52640000      2.62689000
  C      3.30723000     -4.08853000     -3.70276000
  O      4.33615000     -4.74379000     -4.07270000
  C     -0.30523100      3.16042000     -5.05666000
  O     -0.11980500      3.44569000     -6.30187000
  C     -0.69013900     -1.50102000     -5.57377000
  O     -1.43922000     -1.27215000     -6.59595000
  C      3.32135000     -5.36537000     -1.66199000
  O      3.93729000     -6.19448000     -2.41466000
  C      0.15497000      0.22439700      5.52208000
  O      0.73306000      0.52006000      6.63112000
  C      0.74616400     -1.10688000     -5.21340000
  O      1.54307000     -1.43362000     -6.16244000
  C     -5.21937000     -1.02896000      2.48753000
  O     -6.46230000     -1.31411000      2.28110000
  C      1.63416000      5.52041000      0.81683500
  O      2.30856000      6.60411000      0.64811400
  C     -2.75622000      4.28808000     -2.04514000
  O     -3.74931000      4.51164000     -2.84695000
  C     -1.16108000      3.84021000     -4.10834000
  O     -1.76354000      4.91571000     -4.50582000
  C      2.16891000     -3.62124000     -4.48207000
  O      2.17940000     -3.83838000     -5.75125000
  C      4.56104000      3.41802000      1.35693000
  O      5.64886000      3.94291000      0.90320400
  C      0.70511000     -5.04652000      2.64153000
  O      1.04220000     -4.98952000      3.88866000
  C      1.17062000      5.20417000      2.20001000
  O      1.48337000      5.89756000      3.23052000
  C     -1.41391000      0.20379100      5.41942000
  O     -2.25627000      0.50431900      6.34704000
  C     -0.78346800     -3.08570000     -5.14414000
  O     -0.01473350     -3.91374000     -5.77390000
  C     -4.74609000     -3.76875000      0.59280600
  O     -5.72665000     -4.19605000     -0.11725100
  C     -2.77434000     -2.16099000      5.04930000
  O     -3.65432000     -1.88077000      5.95361000
  C     -1.49116000      2.91982000      4.35935000
  O     -1.79569000      3.28751000      5.62240000
  C     -2.29060000     -4.17875000     -2.01875000
  O     -3.02390000     -5.20884000     -2.13016000
