#B3LYP/6-31+G(d) OPT FREQ

110, Energy = -12306.78267935 au

0 1
 Ni      0.32197300     -3.57158000     -2.26302000
 Ni     -1.39417000     -0.14235000     -1.17101000
 Ni      0.42312000     -4.36302000      0.33329800
 Ni     -0.68738200      4.77661000     -0.42540300
 Ni     -1.31790000      2.62025000     -2.05246000
 Ni     -3.33568000      0.65530000      0.65138800
 Ni     -1.08677000     -0.88808300      1.36500000
 Ni     -0.10831900      3.52742000      2.20335000
 Ni      0.39186400     -0.91260800     -3.17533000
 Ni      3.40375000     -0.53405400     -0.84696500
 Ni      0.77135200     -1.60248000     -0.57217100
 Ni      2.87883000     -2.71236000     -2.40283000
 Ni      3.74394000      2.23982000     -1.65875000
 Ni      1.64079000     -0.34901100      3.74640000
 Ni      1.35848000      0.29734700      1.14605000
 Ni      2.71792000      0.35485700     -3.20228000
 Ni      1.36775000      3.79704000     -2.35271000
 Ni     -1.98795000     -2.07048000     -2.81272000
 Ni      3.41504000     -1.15976000      1.74987000
 Ni     -1.63190000     -2.89058000     -0.28669400
 Ni      3.78507000      1.36551000      0.86165300
 Ni      1.01573000      1.03921000     -1.34712000
 Ni     -1.72196000      0.41374500     -3.73952000
 Ni     -3.76042000     -1.27283000     -0.90535300
 Ni      2.09650000      2.38113000      2.80277000
 Ni     -0.42101700      0.94679200      3.13374000
 Ni      2.70295000     -3.24070000     -0.03550030
 Ni     -1.29565000     -3.53721000      2.32910000
 Ni     -3.10206000      3.35543000     -0.04462610
 Ni      1.80233000      3.11492000      0.30699600
 Ni     -2.58145000      2.56556000      2.60199000
 Ni     -2.99739000     -0.19219700      3.40790000
 Ni      0.42910900      1.77253000     -3.91558000
 Ni     -0.79208100      1.74520000      0.49407400
 Ni     -3.58665000     -2.07654000      1.70373000
 Ni     -0.82446000     -1.56394000      3.98464000
 Ni     -3.67786000      1.43795000     -1.82550000
 Ni      1.08249000     -2.42931000      2.00427000
  C     -4.90726000      0.10826300      3.61121000
  O     -5.46601000      0.77959200      4.56708000
  C     -3.99462000     -1.52779000      4.49668000
  O     -4.44621000     -1.57604000      5.69707000
  C     -0.05440060     -0.01595610      5.48999000
  O     -0.22609000      0.23770100      6.75590000
  C     -2.42933000      5.79765000     -0.98007800
  O     -2.81132000      6.75356000     -1.73635000
  C      1.66120000      5.85857000      0.40140700
  O      2.57746000      6.73512000      0.10646100
  C      2.63611000      4.30627000      2.70794000
  O      3.02588000      5.24542000      3.49722000
  C     -5.20116000      2.91050000      0.09737010
  O     -6.06736000      3.51261000      0.85243500
  C      3.20826000      4.91749000     -2.12219000
  O      3.15396000      6.23755000     -2.05998000
  C     -2.11471000      3.00050000      4.74453000
  O     -2.77837000      3.42860000      5.75170000
  C     -0.21945800      5.62557000     -2.31635000
  O     -0.40134000      6.90387000     -2.47046000
  C     -2.88294000      4.69311000      2.65262000
  O     -3.60924000      5.46170000      3.38359000
  C      5.08285000     -1.41049000     -1.60098000
  O      6.33391000     -1.13604000     -1.41151000
  C      0.41516600     -5.78284000     -3.08984000
  O      1.36151000     -6.54563000     -3.51795000
  C      4.10364000      2.20681000     -3.71773000
  O      4.78776000      2.86534000     -4.60512000
  C      4.78898000     -2.51973000     -2.52160000
  O      5.63518000     -3.27658000     -3.13344000
  C      3.24041000     -4.68155000     -2.22195000
  O      4.07088000     -5.24818000     -3.03268000
  C      5.44137000      1.19935000     -1.05812000
  O      6.68838000      1.24864000     -1.46415000
  C      0.97577400     -4.55860000      2.75787000
  O      1.56036000     -5.36091000      3.62832000
  C     -0.56986300      5.02692000     -3.67429000
  O     -1.28618000      5.70670000     -4.51138000
  C      0.27171100      6.39686000      0.30202500
  O      0.04984010      7.65557000      0.44016300
  C     -3.84072000     -2.95799000      3.83240000
  O     -4.86340000     -3.77328000      3.78800000
  C     -2.71760000      5.53079000      0.48741200
  O     -3.26078000      6.50612000      1.13649000
  C     -2.35049000     -3.34556000      4.17808000
  O     -2.46217000     -4.00891000      5.31495000
  C     -2.94542000      3.90369000     -2.89165000
  O     -3.13848000      5.10090000     -3.29725000
  C     -4.96716000      4.11101000     -1.16461000
  O     -5.35509000      5.10937000     -1.96014000
  C     -0.09915510     -0.28533900     -5.36799000
  O      0.01006550     -0.74269900     -6.59553000
  C     -0.00351691      3.69997000     -4.34740000
  O     -0.01154030      4.03886000     -5.64281000
  C      2.88534000      4.66333000      1.19445000
  O      4.00413000      5.23872000      0.88103300
  C     -1.75019000     -5.16348000      0.22303600
  O     -2.41119000     -6.27003000     -0.05847330
  C      4.25531000      4.10534000     -1.36634000
  O      5.35641000      4.57695000     -0.90117900
  C     -5.34303000      1.31757000     -0.23432400
  O     -6.55920000      0.90534900     -0.16891500
  C     -5.43525000     -1.43184000      1.44958000
  O     -6.53662000     -1.83725000      0.89719900
  C     -3.82684000      2.76112000     -3.29247000
  O     -4.63270000      3.04876000     -4.26240000
  C      2.54891000     -5.37685000     -1.09958000
  O      2.48786000     -6.65360000     -1.06945000
  C     -5.76667000     -0.32348700      2.41369000
  O     -6.96186000      0.14903000      2.55476000
  C      2.74779000      4.36362000     -3.53166000
  O      2.92596000      4.95630000     -4.64930000

