#B3LYP/6-31+G(d) OPT FREQ

110, Energy = -12415.80707345 au

0 1
 Ni     -0.28424700     -3.65153000     -2.51927000
 Ni     -1.48048000     -0.25715600     -1.20318000
 Ni      0.77120200     -4.45030000      0.61730700
 Ni     -0.47688700      4.27713000      0.08889570
 Ni     -1.38446000      2.58841000     -2.26474000
 Ni     -3.46471000      0.58704500      0.65059500
 Ni     -1.03419000     -0.88505300      1.25508000
 Ni     -0.01187960      3.89093000      2.62038000
 Ni      0.21580200     -1.12139000     -3.26287000
 Ni      3.36323000     -0.48328200     -0.68621500
 Ni      0.73127800     -1.70282000     -0.60032200
 Ni      2.65169000     -2.23492000     -2.43894000
 Ni      3.43573000      2.13645000     -1.63610000
 Ni      1.75310000     -0.16879700      3.85834000
 Ni      1.40700000      0.29557700      1.21032000
 Ni      3.01599000      0.38136500     -3.45118000
 Ni      1.05100000      3.37407000     -2.28807000
 Ni     -2.46550000     -2.35210000     -3.37107000
 Ni      3.73524000     -1.03720000      1.66604000
 Ni     -1.86087000     -3.10628000     -0.48925200
 Ni      3.87905000      1.63230000      1.06473000
 Ni      0.97039900      0.88447700     -1.38905000
 Ni     -1.80463000      0.38118400     -3.66536000
 Ni     -4.05296000     -1.24234000     -1.09523000
 Ni      2.12389000      2.28289000      3.02541000
 Ni     -0.24072300      1.24783000      3.50026000
 Ni      3.00092000     -3.18893000      0.14329900
 Ni     -1.17561000     -3.56314000      2.07021000
 Ni     -2.79739000      3.32561000      0.20898800
 Ni      1.64239000      2.91336000      0.50955600
 Ni     -2.34460000      2.51730000      2.52289000
 Ni     -2.59998000     -0.05279920      3.13847000
 Ni      0.57684600      1.74984000     -4.31844000
 Ni     -0.77042700      1.66550000      0.60486700
 Ni     -3.64219000     -2.21208000      1.27610000
 Ni     -0.51313100     -1.49420000      3.72403000
 Ni     -3.83783000      1.57695000     -1.79540000
 Ni      1.20712000     -2.21231000      1.88992000
  C      2.86078000      2.00451000     -4.59479000
  O      3.30991000      2.13491000     -5.80485000
  C     -1.40197000      1.77936000      5.02507000
  O     -1.97847000      1.36567000      6.09720000
  C     -0.49746500      2.21374000     -5.88053000
  O     -1.18870000      3.11058000     -6.49062000
  C      4.87103000     -2.75222000     -1.23386000
  O      6.08186000     -3.18096000     -1.05727000
  C     -0.68261400      3.74547000     -3.67467000
  O     -1.27352000      4.72418000     -4.44920000
  C      4.77203000     -0.60135200     -3.42742000
  O      5.90849000     -0.19901500     -3.88492000
  C     -0.54447400      3.02874000      4.72918000
  O     -0.08287130      3.71837000      5.71429000
  C     -4.01128000     -1.93213000     -4.27075000
  O     -4.27416000     -2.27019000     -5.49734000
  C      3.56809000      4.09138000      2.90811000
  O      4.27853000      4.49064000      3.90676000
  C      2.24880000      5.04903000      2.78289000
  O      2.35968000      5.91568000      3.72222000
  C     -1.02041000      5.35690000      3.34992000
  O     -1.03082000      6.12921000      4.37487000
  C     -1.74867000      5.89704000      2.16427000
  O     -1.51780000      7.14018000      1.94860000
  C     -3.09182000      3.50318000      4.52674000
  O     -3.18868000      3.52482000      5.81077000
  C      1.14362000      1.03780000      5.20528000
  O      1.08008000      1.24147000      6.53622000
  C     -3.68999000     -4.28341000      1.12805000
  O     -4.51358000     -5.16413000      1.59526000
  C     -5.28074000     -1.25871000      0.59782000
  O     -6.62714000     -1.16647000      0.88085400
  C      4.93097000     -2.04878000     -2.86612000
  O      5.70475000     -2.89305000     -3.47045000
  C     -2.66550000      5.03107000      1.18758000
  O     -3.64821000      5.86926000      1.12434000
  C     -3.20186000      2.98884000     -3.05450000
  O     -3.71312000      3.94973000     -3.87793000
  C      2.45948000     -5.14483000      1.21633000
  O      2.85853000     -6.08673000      2.07233000
  C     -3.05305000     -4.12158000     -2.80269000
  O     -4.18689000     -4.70797000     -2.98264000
  C     -2.94300000     -4.74719000     -0.09271230
  O     -3.20537000     -5.89230000     -0.61679000
  C     -3.44990000      4.29650000      3.46376000
  O     -4.13123000      5.38925000      3.45717000
  C      0.04600030     -5.43634000      2.41961000
  O      0.52936900     -6.26579000      3.31992000
  C      4.58124000      3.03165000     -2.99737000
  O      5.72468000      3.47070000     -3.37338000
  C     -5.59018000      1.74750000     -0.96065800
  O     -6.71997000      2.15068000     -1.43246000
  C      4.23953000      3.46117000      1.64757000
  O      5.15506000      4.28253000      1.26636000
  C     -5.30051000      1.39668000      0.44423400
  O     -6.24921000      1.52477000      1.31470000
  C     -4.89222000     -1.22516000     -3.38521000
  O     -6.05104000     -0.81139900     -3.74702000
  C      3.58449000      3.33791000     -4.05100000
  O      3.42800000      4.49108000     -4.54678000
  C     -1.76752000     -4.90351000     -2.49228000
  O     -1.73951000     -6.19505000     -2.49728000
  C      1.42056000      5.24681000      1.45872000
  O      1.56073000      6.47176000      1.08542000
  C      0.61441000     -4.68858000     -4.32223000
  O      0.39229900     -4.68235000     -5.58815000
  C      0.19832200      0.95941400     -6.06701000
  O      0.51916500      0.10708000     -6.97533000
  C      5.25977000     -0.55901700      0.38240300
  O      6.56155000     -0.89576200      0.13437300
  C     -0.96525100     -2.04777000     -4.76592000
  O     -0.79579700     -2.44155000     -6.06883000

