110
Energy = -12312.81082538 au
 Ni      0.08481710     -3.59485000     -2.57708000
 Ni     -1.38072000     -0.23514500     -1.23087000
 Ni      0.59565100     -4.45121000     -0.01410930
 Ni     -0.72320500      4.37433000     -0.45527000
 Ni     -1.31468000      2.54085000     -2.20936000
 Ni     -3.61339000      0.62047000      0.86623500
 Ni     -1.06915000     -0.92825100      1.36483000
 Ni     -0.22413400      3.62988000      2.17709000
 Ni      0.35515800     -1.02628000     -3.43204000
 Ni      3.18693000     -0.53144500     -0.72597800
 Ni      0.75704300     -1.69491000     -0.58081300
 Ni      2.41837000     -2.43194000     -2.40161000
 Ni      3.48776000      2.00118000     -1.95360000
 Ni      1.63971000     -0.61455800      3.92613000
 Ni      1.37895000      0.16007600      1.20682000
 Ni      2.68161000     -0.05540740     -3.41310000
 Ni      0.89204000      3.62370000     -2.29210000
 Ni     -1.96289000     -2.04495000     -3.25567000
 Ni      3.61837000     -1.57304000      1.99110000
 Ni     -1.67538000     -2.92626000     -0.42737300
 Ni      3.69152000      1.24656000      1.03253000
 Ni      0.98125800      0.88569900     -1.45068000
 Ni     -1.97710000      0.49105200     -3.76946000
 Ni     -3.84862000     -1.33186000     -0.86130500
 Ni      2.36536000      1.94390000      3.15536000
 Ni     -0.29933100      0.86307100      3.21465000
 Ni      3.09911000     -3.29509000      0.18946600
 Ni     -1.58158000     -3.42962000      2.23800000
 Ni     -3.25689000      3.09867000      0.24641800
 Ni      1.55709000      2.67794000      0.33412700
 Ni     -2.55308000      2.23499000      2.57614000
 Ni     -3.10330000     -0.37054900      3.21106000
 Ni      0.46643700      1.59475000     -4.07505000
 Ni     -0.84579100      1.64888000      0.49372200
 Ni     -3.91816000     -2.38409000      1.52860000
 Ni     -0.66853200     -1.43927000      4.33422000
 Ni     -3.61582000      1.27707000     -1.55981000
 Ni      1.16753000     -2.45077000      2.11026000
  C      3.92374000     -4.21228000      1.73488000
  O      4.02684000     -5.46312000      2.03572000
  C     -1.81561000      4.84118000     -2.32796000
  O     -2.85726000      5.32337000     -2.91132000
  C      0.01679580      4.15085000     -4.80040000
  O      0.31234600      5.37539000     -4.91768000
  C     -3.35753000     -4.29577000      1.15250000
  O     -4.16687000     -5.38533000      1.19223000
  C     -0.66864300     -2.58042000     -4.87497000
  O     -1.07860000     -2.54959000     -6.10400000
  C     -2.75831000     -3.64560000      4.40413000
  O     -2.98456000     -4.88414000      4.67651000
  C     -1.19163000      5.64400000      1.64261000
  O     -1.71972000      6.65963000      2.18514000
  C      2.28160000     -5.14769000     -1.36126000
  O      2.73021000     -6.33553000     -1.63589000
  C      3.84276000      2.10166000      4.47993000
  O      4.07888000      2.72656000      5.58731000
  C     -3.60487000     -0.89028700     -4.65174000
  O     -4.52010000     -0.88691900     -5.53821000
  C     -3.41187000      4.49892000      3.47935000
  O     -3.93416000      5.58375000      3.99051000
  C     -3.85677000     -1.97400000      4.35207000
  O     -4.33446000     -1.88404000      5.51066000
  C      5.50023000     -1.09193000     -1.98692000
  O      6.37531000     -1.69881000     -2.71600000
  C     -0.40634000      5.46708000     -2.38583000
  O     -0.19831000      6.60486000     -2.92894000
  C      3.40230000      3.03221000     -4.18728000
  O      3.28456000      3.36739000     -5.41119000
  C      4.46722000     -3.15845000      2.63492000
  O      5.23544000     -3.41274000      3.62816000
  C      5.08745000      0.39810100     -2.21630000
  O      6.10635000      0.99997700     -2.71308000
  C      0.45970100      3.07886000     -5.71597000
  O      0.19765000      3.45530000     -6.90416000
  C     -4.69874000      0.66511000      2.37604000
  O     -5.98136000      0.82925300      2.48157000
  C      5.01683000     -2.13300000     -0.80353800
  O      6.13789000     -2.69026000     -0.45740600
  C      2.20710000     -2.83314000      3.93679000
  O      2.67397000     -3.88931000      4.60325000
  C      1.16195000     -0.54938000     -5.40801000
  O      0.70038800     -0.55352100     -6.61496000
  C     -4.90209000      2.17184000      0.08039560
  O     -6.08447000      2.55126000      0.38420500
  C      0.64901000     -3.36775000     -4.54699000
  O      1.39407000     -3.90421000     -5.44925000
  C     -3.62048000      4.48188000      1.90591000
  O     -4.18244000      5.60401000      1.60460000
  C     -1.28660000      3.24005000     -4.16475000
  O     -2.12589000      3.78727000     -4.97851000
  C      4.65970000      1.14356000      3.84760000
  O      5.78719000      0.63374700      4.15476000
  C      4.28261000      3.41964000     -3.15591000
  O      5.25834000      4.26174000     -3.23418000
  C     -5.38175000     -1.41494000      0.76436600
  O     -6.70660000     -1.30709000      1.07815000
  C     -4.20945000     -3.17272000      3.37702000
  O     -5.23348000     -3.96666000      3.28628000
  C      1.40149000     -5.62005000      1.96053000
  O      1.71070000     -6.82823000      2.28699000
  C     -2.80688000      3.37359000      4.23837000
  O     -2.61637000      3.20823000      5.49426000
  C      0.08466490     -0.01774070      5.33195000
  O     -0.03572220      0.28315900      6.56669000
  C      2.52999000     -1.17319000     -5.12814000
  O      3.21920000     -1.88948000     -5.94277000
  C     -1.37306000     -5.12000000     -1.42058000
  O     -2.03465000     -6.22030000     -1.77233000
  C     -1.70214000     -2.76537000      5.13679000
  O     -1.91835000     -2.91996000      6.39267000
