110
Energy = -12548.92337932 au
 Ni      0.01852500     -3.70656000     -2.50478000
 Ni     -1.40464000     -0.19749800     -1.28783000
 Ni      0.60093900     -4.31821000     -0.00092542
 Ni     -0.41326700      4.52247000     -0.36227900
 Ni     -1.35666000      2.52226000     -2.24434000
 Ni     -3.15626000      0.63639000      0.60844000
 Ni     -0.97225100     -0.98253000      1.25760000
 Ni      0.17640400      3.51918000      2.23897000
 Ni      0.30401200     -0.83151900     -3.16813000
 Ni      3.62378000     -0.49400600     -0.76803000
 Ni      0.72185400     -1.66921000     -0.61299900
 Ni      2.47544000     -2.23023000     -2.60723000
 Ni      3.37455000      2.05181000     -1.52061000
 Ni      1.98177000     -0.21109000      3.79073000
 Ni      1.51488000      0.28246200      1.16572000
 Ni      2.67945000      0.17633400     -3.46956000
 Ni      1.20052000      3.59124000     -2.13504000
 Ni     -1.91217000     -2.14844000     -3.07210000
 Ni      3.65951000     -1.21968000      1.80424000
 Ni     -1.71929000     -3.02228000     -0.60548500
 Ni      3.98410000      1.48515000      1.01264000
 Ni      1.04478000      0.92761100     -1.33742000
 Ni     -2.11635000      0.28207700     -4.17910000
 Ni     -3.68488000     -1.45297000     -0.97633000
 Ni      2.46340000      2.35069000      3.16205000
 Ni     -0.27915300      0.92544100      3.03253000
 Ni      2.80629000     -3.08329000      0.02334880
 Ni     -1.27562000     -3.51178000      1.98672000
 Ni     -3.09434000      3.40638000     -0.21187000
 Ni      1.90786000      3.10310000      0.40267700
 Ni     -2.59956000      2.73077000      2.26192000
 Ni     -2.67217000     -0.36665700      3.10506000
 Ni      0.64268800      1.74558000     -3.82084000
 Ni     -0.73937100      1.75175000      0.44931000
 Ni     -3.52990000     -2.33844000      1.57603000
 Ni     -0.33318000     -1.64685000      4.08517000
 Ni     -3.60694000      1.11383000     -2.21293000
 Ni      1.31018000     -2.53583000      2.25451000
  C     -4.83432000      0.13236800     -3.52868000
  O     -6.10573000     -0.05667120     -3.62254000
  C     -3.77583000     -2.67944000      3.49595000
  O     -4.61702000     -3.34047000      4.24285000
  C     -2.00335000      5.30105000     -2.64015000
  O     -2.76619000      6.18024000     -3.23690000
  C      3.25823000      4.55668000      1.63461000
  O      3.37154000      5.76377000      1.18578000
  C     -2.74382000      2.18847000     -4.50051000
  O     -3.20620000      2.85085000     -5.53526000
  C      2.36150000      4.30323000      2.94451000
  O      2.77962000      5.25224000      3.71056000
  C      0.65818100     -3.34183000      4.15369000
  O      1.16723000     -4.18692000      5.08365000
  C     -1.18941000      5.93020000     -1.50878000
  O     -0.97754900      7.18553000     -1.65414000
  C     -0.90090600     -0.98583300     -5.35264000
  O     -0.74521800     -0.67811200     -6.58987000
  C     -2.98503000      3.85486000     -2.15222000
  O     -3.91326000      4.12049000     -3.00543000
  C     -0.69108100      4.29770000     -3.15738000
  O     -0.74106300      4.78100000     -4.34958000
  C      5.42196000      0.73458800     -0.90139000
  O      6.38607000      0.99267200     -1.71505000
  C      2.09148000      5.91814000     -0.93011300
  O      2.41181000      7.01055000     -1.52906000
  C      4.63621000     -1.61590000     -2.03282000
  O      5.93385000     -1.85709000     -2.25340000
  C     -2.32110000     -4.66049000     -2.36850000
  O     -3.24555000     -5.55990000     -2.29468000
  C      1.97660000     -1.32125000     -4.94927000
  O      2.33383000     -0.98454500     -6.14085000
  C      1.95020000     -5.30259000     -1.19731000
  O      2.34099000     -6.53486000     -1.37293000
  C      5.49442000     -0.34461500      0.25501700
  O      6.54380000     -1.04643000      0.51253700
  C      0.95935500      5.86307000      0.06578590
  O      0.87393600      7.00566000      0.65089600
  C     -4.65950000      2.28714000      1.30292000
  O     -5.94222000      2.47270000      1.63209000
  C     -4.39747000     -3.57449000      0.35618700
  O     -5.61079000     -4.01755000      0.38276200
  C      3.17305000     -3.08766000      2.85177000
  O      3.70634000     -3.94758000      3.74445000
  C     -3.10357000      4.67931000      2.26790000
  O     -3.13761000      5.55429000      3.21467000
  C      3.88016000      0.90016400      4.52491000
  O      4.91933000      0.39078300      5.09654000
  C     -3.93854000     -0.32136600     -4.60361000
  O     -4.28916000     -0.87911400     -5.71284000
  C      2.92003000      4.59712000     -1.12347000
  O      4.11835000      5.03737000     -1.31596000
  C     -3.60023000     -4.89889000      0.28984300
  O     -4.15559000     -5.89878000     -0.28912800
  C     -2.31687000     -5.02685000      1.08892000
  O     -2.28120000     -6.29315000      1.32809000
  C      3.84542000      2.36166000      4.47415000
  O      4.48890000      3.34922000      4.99509000
  C      2.81615000      2.25345000     -4.31110000
  O      3.43310000      2.79997000     -5.35306000
  C     -3.55688000      4.95939000      0.90134300
  O     -4.19359000      5.99968000      0.47846700
  C      0.10689900     -0.24230800      5.49331000
  O     -0.14005100     -0.07014450      6.77463000
  C      1.13306000     -2.63478000     -5.11949000
  O      1.59371000     -3.70187000     -5.63785000
  C     -0.42650200     -2.49885000     -5.19075000
  O     -0.95616200     -3.47452000     -5.83668000
  C     -1.43484000     -4.97150000     -3.52687000
  O     -1.62226000     -5.89267000     -4.39351000
  C      4.34956000      3.42273000      1.51953000
  O      5.44666000      4.06814000      1.68237000
