#B3LYP/6-31+G(d) OPT FREQ

110, Energy = -12333.06643434 au

0 1
 Ni     -0.07550970     -3.75723000     -2.45880000
 Ni     -1.39995000     -0.26516700     -1.13773000
 Ni      0.44626600     -4.70308000      0.26792300
 Ni     -0.44685300      4.27851000     -0.32711100
 Ni     -1.22064000      2.40474000     -1.95588000
 Ni     -3.36647000      0.60923600      0.91757700
 Ni     -1.03563000     -0.94663900      1.39301000
 Ni     -0.03518950      3.66820000      2.28680000
 Ni      0.34560600     -1.19392000     -3.23193000
 Ni      3.07980000     -0.57190300     -0.65226500
 Ni      0.69142800     -1.76162000     -0.53058000
 Ni      2.41631000     -2.59221000     -2.24086000
 Ni      3.46445000      1.88041000     -1.47786000
 Ni      1.85580000     -0.29965000      3.83206000
 Ni      1.35028000      0.20782400      1.26003000
 Ni      2.78862000      0.07324270     -3.17066000
 Ni      1.29115000      3.43802000     -1.96782000
 Ni     -2.09447000     -2.20525000     -2.79800000
 Ni      3.66363000     -1.08146000      2.08497000
 Ni     -1.52803000     -2.93191000     -0.42697600
 Ni      3.68063000      1.31853000      1.04656000
 Ni      0.95229100      0.86188400     -1.33588000
 Ni     -1.71180000      0.35830900     -3.69942000
 Ni     -3.73355000     -1.58942000     -1.01733000
 Ni      2.15380000      2.34520000      2.86282000
 Ni     -0.36072600      1.09285000      3.33721000
 Ni      2.91551000     -3.08078000      0.32127200
 Ni     -1.28860000     -3.79040000      2.25174000
 Ni     -2.96049000      3.22103000     -0.01436520
 Ni      1.73007000      2.90439000      0.42183000
 Ni     -2.53376000      2.75968000      2.60039000
 Ni     -2.91026000     -0.18813300      3.41466000
 Ni      0.63147300      1.31061000     -3.98721000
 Ni     -0.78249900      1.68403000      0.61950400
 Ni     -3.34985000     -2.28274000      1.38088000
 Ni     -0.77406900     -1.54544000      4.06039000
 Ni     -3.54045000      1.12140000     -1.64891000
 Ni      1.15944000     -2.45259000      2.08558000
  C     -4.99506000      2.27762000      0.12777900
  O     -6.22249000      2.64430000      0.36539100
  C      1.87753000      5.19598000      2.20908000
  O      1.57862000      6.41245000      2.52410000
  C      1.35970000      0.47574300     -5.86265000
  O      2.25067000      0.32706700     -6.77328000
  C      5.52901000     -0.55136500      3.09608000
  O      6.80706000     -0.41474000      3.08772000
  C     -5.08548000     -0.63342700      3.08692000
  O     -6.18504000     -1.09664000      3.56538000
  C      1.80446000      5.27301000     -0.29379400
  O      2.07707000      6.42849000     -0.70206200
  C     -2.43927000     -2.00882000      4.93211000
  O     -2.94178000     -2.73711000      5.91473000
  C     -2.40200000      3.06550000      4.74137000
  O     -3.08175000      3.98138000      5.33009000
  C      2.96351000      4.20691000      2.81568000
  O      4.03511000      4.58287000      3.41935000
  C     -0.06789580      0.30301400     -5.88572000
  O     -0.88414200     -0.01382640     -6.82385000
  C      0.17948300     -3.51287000     -4.58125000
  O      0.28653500     -4.51502000     -5.39209000
  C     -4.00728000     -4.11119000      0.02516450
  O     -5.22156000     -4.29367000      0.40719600
  C     -3.45804000     -4.90309000      2.66997000
  O     -4.55628000     -5.60761000      2.68114000
  C     -2.81880000      4.60441000      2.23399000
  O     -3.43621000      5.58665000      2.83428000
  C      3.29924000     -4.68000000     -1.88702000
  O      3.99472000     -5.44344000     -2.73821000
  C      0.38012200     -2.20015000     -5.14538000
  O      0.58898600     -2.05401000     -6.41011000
  C      2.75296000      4.98103000      0.92037300
  O      4.04579000      5.36438000      0.79035200
  C      3.66984000     -4.20957000      2.03430000
  O      4.84561000     -4.20654000      2.56343000
  C      2.34636000     -4.27801000      3.04619000
  O      2.56436000     -4.43449000      4.30221000
  C     -2.86003000     -5.32065000      0.30575700
  O     -3.65205000     -6.30856000     -0.00648385
  C     -0.03378800     -4.73145000      3.42714000
  O     -0.11297600     -5.24736000      4.60243000
  C      0.57230700      0.10605700      5.52598000
  O      0.63460600      0.47481300      6.74436000
  C      3.05582000     -5.76442000     -0.54890400
  O      3.96552000     -6.71776000     -0.59398300
  C     -1.35671000     -5.76444000     -0.48573100
  O     -1.21970000     -7.00931000     -0.14260700
  C     -1.22143000     -5.30445000     -1.95767000
  O     -1.84311000     -6.15545000     -2.71098000
  C     -2.33027000     -5.63489000      1.94994000
  O     -1.87532000     -6.82192000      2.14159000
  C      3.09135000     -5.38348000      1.10400000
  O      3.41382000     -6.46128000      1.72666000
  C     -3.60193000     -3.79632000     -1.48224000
  O     -4.06825000     -4.80225000     -2.12908000
  C      4.57448000     -0.39159300      4.12152000
  O      4.78601000     -0.17535400      5.36898000
  C     -2.08361000      1.50552000      5.17956000
  O     -2.39093000      0.97653300      6.31165000
  C     -0.85160000      2.60920000      4.99961000
  O     -0.01670610      3.13184000      5.83787000
  C      1.09025000     -5.32721000      2.53184000
  O      1.25465000     -6.60104000      2.46271000
  C     -2.21840000      4.49354000     -1.92795000
  O     -2.68805000      5.40042000     -2.78383000
  C      1.51206000     -6.01014000     -0.65560100
  O      1.32587000     -7.11389000     -1.27778000
  C      4.94915000      0.53729900     -2.41978000
  O      6.18693000      0.45268400     -2.74636000
  C     -5.02239000      0.64282500      2.31923000
  O     -6.02418000      1.45610000      2.38302000

