110
Energy = -12346.48059358 au
 Ni      0.23679400     -3.72343000     -2.26582000
 Ni     -1.51569000     -0.27341300     -1.27078000
 Ni      0.84871800     -4.30507000      0.03273440
 Ni     -0.29583300      4.37660000     -0.07934270
 Ni     -1.41261000      2.32495000     -2.25474000
 Ni     -3.39487000      0.59147600      0.72096000
 Ni     -0.98575000     -0.91173700      1.26400000
 Ni     -0.19211400      3.39851000      2.39444000
 Ni      0.26004800     -1.13343000     -3.46490000
 Ni      3.41602000     -0.58184400     -0.81394500
 Ni      0.76222600     -1.67488000     -0.59611300
 Ni      2.45572000     -2.39507000     -2.68247000
 Ni      3.50195000      1.93528000     -1.42436000
 Ni      1.91545000     -0.44380100      3.59276000
 Ni      1.41926000      0.22510900      1.13970000
 Ni      2.79686000      0.26938600     -3.44241000
 Ni      1.38552000      3.54605000     -1.91826000
 Ni     -2.41201000     -2.29642000     -3.01975000
 Ni      3.79749000     -1.10901000      1.79095000
 Ni     -1.79056000     -3.08229000     -0.49019800
 Ni      3.94562000      1.24594000      1.26938000
 Ni      0.98786500      0.89171900     -1.36614000
 Ni     -2.09083000      0.16204100     -3.96477000
 Ni     -4.03121000     -1.59368000     -1.26927000
 Ni      2.19034000      1.99568000      2.94738000
 Ni     -0.34213000      1.08396000      3.30024000
 Ni      3.14960000     -3.04845000     -0.08656370
 Ni     -1.08720000     -3.42538000      2.13507000
 Ni     -2.95272000      3.07711000      0.10213600
 Ni      1.86620000      2.98951000      0.52325800
 Ni     -2.59996000      2.65778000      2.63246000
 Ni     -2.62485000     -0.14850000      3.09742000
 Ni      0.50253300      1.60487000     -3.90214000
 Ni     -0.77120400      1.66814000      0.52666300
 Ni     -3.67194000     -1.99765000      1.27030000
 Ni     -0.37842100     -1.75910000      3.81542000
 Ni     -3.96660000      0.95837800     -2.05414000
 Ni      1.34591000     -2.46293000      2.10320000
  C      3.05695000      4.50737000      0.57278600
  O      3.43485000      5.40870000      1.39942000
  C     -5.37845000     -0.86470700      0.92174800
  O     -6.62133000     -1.13764000      0.91176100
  C     -5.72353000      1.32841000     -1.41152000
  O     -6.81324000      1.50578000     -2.09246000
  C     -4.19764000     -4.21537000      1.16658000
  O     -5.27281000     -4.91279000      1.07656000
  C      3.04209000      5.02609000     -0.83846700
  O      4.05070000      5.31594000     -1.56309000
  C     -4.14646000     -3.61605000     -1.86815000
  O     -5.20660000     -4.34260000     -1.86530000
  C      5.15917000      0.69170500     -1.91700000
  O      6.44797000      0.75050800     -2.12361000
  C     -0.53249600      2.05499000      5.05277000
  O     -0.21156500      1.90776000      6.30668000
  C     -5.50101000      0.76027600      1.30460000
  O     -5.89627000      1.02534000      2.47953000
  C      4.90205000     -2.49947000     -0.92580700
  O      5.66923000     -3.12335000     -1.77670000
  C     -2.26727000     -4.84345000     -1.10011000
  O     -2.82662000     -5.89552000     -0.61391800
  C      0.78224500      5.99846000      0.19723700
  O      0.90433300      6.94980000      1.07484000
  C      5.86221000     -0.77229500      1.35947000
  O      7.01599000     -0.76660800      1.90955000
  C      0.25663300     -3.93373000      4.15881000
  O     -0.00889649     -4.94545000      4.91570000
  C      1.73865000      6.04276000     -0.94570000
  O      2.02475000      7.03597000     -1.74027000
  C      4.46256000      1.03552000      3.45394000
  O      5.51058000      1.26443000      4.17867000
  C      5.64874000     -1.36914000     -0.06736390
  O      6.82437000     -0.98722800     -0.51067400
  C     -3.04184000     -4.59243000     -2.43985000
  O     -2.97015000     -5.28840000     -3.50546000
  C      1.01912000     -2.26307000     -5.00499000
  O      0.63630800     -2.33924000     -6.22588000
  C     -1.02494000     -0.78013600     -5.35300000
  O     -1.11160000     -0.95031600     -6.69143000
  C     -1.52048000      3.11923000      4.55090000
  O     -2.01842000      3.93415000      5.43171000
  C      3.72513000     -4.41794000      1.82735000
  O      4.21245000     -5.57657000      2.11656000
  C     -4.47739000     -1.99766000     -3.51591000
  O     -5.21658000     -2.67806000     -4.29194000
  C     -2.73028000      3.25729000     -3.69563000
  O     -3.81220000      3.88370000     -3.93878000
  C     -3.74943000      4.37185000      1.93067000
  O     -3.85529000      5.59932000      2.24573000
  C     -1.48833000      3.13039000     -4.45596000
  O     -1.23982000      3.80484000     -5.51453000
  C     -4.52046000      3.13019000      1.89089000
  O     -5.75138000      3.32508000      2.21416000
  C     -5.96082000      1.58802000     -0.00136093
  O     -6.90086000      2.36219000      0.43397400
  C      1.57837000     -5.41856000     -2.25102000
  O      1.94969000     -6.13050000     -3.26370000
  C     -5.05666000     -0.49900100     -3.53602000
  O     -6.34631000     -0.27138900     -3.42840000
  C      2.97334000      1.90497000     -4.78460000
  O      3.81015000      2.41176000     -5.66746000
  C      2.21456000     -2.94524000     -4.55230000
  O      2.92001000     -3.67137000     -5.34921000
  C     -3.96902000      0.13782500     -4.45453000
  O     -4.43637000     -0.00808736     -5.63904000
  C      2.35795000      0.16137300     -5.58728000
  O      2.69463000     -0.61143400     -6.59310000
  C      2.05403000     -5.74726000     -0.89744600
  O      2.91773000     -6.63611000     -0.55354900
  C      1.68095000     -3.42052000      3.97499000
  O      2.70706000     -3.82435000      4.62990000
