#B3LYP/6-31+G(d) OPT FREQ

110, Energy = -11320.77299262 au

0 1
 Ni      0.03722290     -3.53172000     -2.21331000
 Ni     -1.39616000     -0.22655900     -1.16215000
 Ni      0.61096600     -4.34190000      0.27718500
 Ni     -0.49352800      4.29226000     -0.33263200
 Ni     -1.14676000      2.26033000     -1.91319000
 Ni     -3.24227000      0.51621000      0.71040000
 Ni     -0.97590800     -0.87997400      1.31013000
 Ni     -0.04261020      3.53712000      2.23456000
 Ni      0.29102000     -0.93543000     -3.02957000
 Ni      3.10660000     -0.51077800     -0.65300600
 Ni      0.72205100     -1.62931000     -0.51829100
 Ni      2.40288000     -2.34293000     -2.36226000
 Ni      3.31579000      1.95075000     -1.42344000
 Ni      1.86044000     -0.43461500      3.64346000
 Ni      1.38346000      0.23974600      1.16474000
 Ni      2.69652000      0.11550300     -3.22255000
 Ni      1.09961000      3.52983000     -2.11007000
 Ni     -2.09310000     -2.12322000     -2.87090000
 Ni      3.49417000     -1.17705000      1.79403000
 Ni     -1.62685000     -2.75080000     -0.42096600
 Ni      3.82558000      1.44134000      1.08173000
 Ni      0.95713400      0.88040400     -1.30212000
 Ni     -1.86849000      0.36572100     -3.73267000
 Ni     -3.87146000     -1.32356000     -0.96864800
 Ni      2.15144000      2.18166000      2.90180000
 Ni     -0.31424100      0.94767300      2.98593000
 Ni      2.87400000     -3.11057000      0.06157970
 Ni     -1.08332000     -3.45750000      2.14108000
 Ni     -2.85004000      3.02528000     -0.13656500
 Ni      1.67709000      2.85436000      0.43276200
 Ni     -2.51349000      2.44328000      2.42326000
 Ni     -2.81761000     -0.19982800      3.28498000
 Ni      0.45738500      1.61294000     -3.90123000
 Ni     -0.72776200      1.62943000      0.54018200
 Ni     -3.47288000     -1.94215000      1.54560000
 Ni     -0.56277000     -1.61802000      3.89426000
 Ni     -3.64207000      1.12439000     -1.79221000
 Ni      1.18048000     -2.35173000      2.01293000
  C      2.31209000     -0.51386800     -5.53544000
  O      2.62128000     -0.90932800     -6.72217000
  C     -0.23752800      3.42684000     -5.15351000
  O     -0.77491100      3.71256000     -6.29923000
  C     -3.40494000     -4.18764000     -2.17446000
  O     -4.04954000     -5.26438000     -2.46335000
  C      5.13454000      0.04827340     -3.25006000
  O      6.31379000     -0.24270500     -3.68017000
  C      2.46617000     -3.24529000      4.03270000
  O      3.37026000     -3.90438000      4.62201000
  C      2.20100000      4.84376000      2.78288000
  O      2.68313000      5.88801000      3.44172000
  C     -1.67822000     -0.11221500      5.75306000
  O     -1.79181000      0.22682900      6.98940000
  C      5.30464000     -2.42239000     -0.33081500
  O      6.51772000     -2.75893000     -0.60387500
  C     -0.08672930      4.47053000     -4.10808000
  O     -0.03345380      5.57696000     -4.80101000
  C     -5.71830000     -0.83078600      0.93449300
  O     -6.93561000     -1.20771000      0.74168600
  C      0.72039000     -5.02379000      3.01756000
  O      1.11375000     -6.23487000      3.56322000
  C      1.12877000     -3.92179000      4.14535000
  O      0.96380100     -4.39564000      5.38752000
  C     -5.00617000      1.05240000      2.96687000
  O     -5.97701000      1.77240000      3.36572000
  C      2.79006000     -5.47759000     -1.15543000
  O      3.74051000     -6.12527000     -1.72281000
  C      1.65689000     -6.19118000     -0.65888600
  O      1.68685000     -7.47717000     -0.77439700
  C      1.76937000      5.64549000     -0.41677300
  O      2.17732000      6.86487000     -0.54094100
  C     -2.18415000      5.27950000     -1.90813000
  O     -3.15084000      5.97209000     -2.38145000
  C      1.95916000     -5.34159000      2.03485000
  O      2.95700000     -6.16238000      2.25158000
  C     -4.39188000     -0.05553310     -4.24101000
  O     -5.33093000     -0.20654100     -5.10928000
  C     -1.27073000     -5.62249000     -1.48490000
  O     -1.90404000     -6.70747000     -1.76781000
  C      5.81351000      0.77334900     -0.34442900
  O      7.08487000      0.61952200     -0.48365000
  C     -4.50309000     -1.12262000      4.66632000
  O     -5.11226000     -1.20482000      5.81589000
  C     -4.39328000     -2.36675000      3.85406000
  O     -5.03247000     -3.41923000      4.30935000
  C     -0.87366500     -5.45137000      3.59307000
  O     -1.09707000     -6.25639000      4.59237000
  C      4.14065000      3.87763000      1.64855000
  O      5.19525000      4.52529000      1.98993000
  C     -6.17875000     -0.33265500     -1.55070000
  O     -7.41779000     -0.12723800     -1.26159000
  C     -5.61760000      2.20731000     -0.63787000
  O     -6.74522000      2.77289000     -0.81682600
  C     -5.57143000      1.11017000      0.37289200
  O     -6.64981000      1.25150000      1.10486000
  C     -3.30928000      4.58107000      2.94057000
  O     -4.18375000      5.25316000      3.61326000
  C      4.15410000      1.39206000      4.27846000
  O      5.09704000      1.65933000      5.11440000
  C      2.95113000      4.74158000      1.35604000
  O      3.41506000      5.89293000      1.03248000
  C     -2.31200000      5.33555000      2.26555000
  O     -2.30278000      6.62153000      2.27948000
  C     -5.46007000     -0.27236500      2.37834000
  O     -6.51943000     -0.70125000      3.10691000
  C     -2.58502000     -2.28419000      5.09394000
  O     -3.19130000     -2.94246000      6.14346000
  C     -0.35575200     -0.14856500     -5.82696000
  O     -0.28014600     -0.50704900     -7.06158000
  C     -0.84992700      5.41575000     -2.61718000
  O     -0.80299300      6.64286000     -3.03340000

