#B3LYP/6-31+G(d) OPT FREQ

110, Energy = -11889.26650402 au

0 1
 Ni      0.03289690     -3.65983000     -2.48585000
 Ni     -1.44421000     -0.28371100     -1.18203000
 Ni      0.56089000     -4.26507000      0.44355200
 Ni     -0.48873600      4.43458000     -0.40620200
 Ni     -1.20053000      2.35489000     -2.06510000
 Ni     -3.18993000      0.48441700      0.62257900
 Ni     -0.99192700     -0.93934800      1.37209000
 Ni     -0.07830880      3.43899000      2.18640000
 Ni      0.28756800     -1.10198000     -3.06687000
 Ni      3.35700000     -0.55134500     -0.71784500
 Ni      0.72394800     -1.67761000     -0.51888900
 Ni      2.46325000     -2.42305000     -2.54643000
 Ni      3.58291000      2.02896000     -1.68341000
 Ni      2.05345000     -0.67573500      3.91804000
 Ni      1.39570000      0.21187200      1.21828000
 Ni      2.69791000      0.20163700     -3.13068000
 Ni      1.46830000      3.57800000     -2.10863000
 Ni     -2.26434000     -2.34332000     -2.96557000
 Ni      3.43782000     -1.23810000      1.87504000
 Ni     -1.66210000     -2.96069000     -0.45015000
 Ni      4.01711000      1.22276000      0.93493800
 Ni      0.97597200      0.88364300     -1.30212000
 Ni     -1.86860000      0.43610200     -3.59648000
 Ni     -3.96515000     -1.54204000     -1.25311000
 Ni      2.07832000      2.04790000      2.98168000
 Ni     -0.35901600      0.91446500      3.34617000
 Ni      2.82945000     -3.13086000      0.16735800
 Ni     -1.35910000     -3.62989000      2.13319000
 Ni     -3.00410000      3.17101000     -0.33148300
 Ni      1.67544000      2.77664000      0.31820100
 Ni     -2.41718000      2.23901000      2.42695000
 Ni     -2.77109000     -0.18869700      3.43336000
 Ni      0.56696000      1.58049000     -3.73057000
 Ni     -0.76153400      1.64186000      0.49581600
 Ni     -3.33343000     -2.08693000      1.49419000
 Ni     -0.75387800     -1.72551000      3.98338000
 Ni     -3.80971000      1.11384000     -1.79383000
 Ni      1.25741000     -2.52157000      2.20207000
  C      0.59548000     -4.68881000      3.02185000
  O      1.02215000     -5.60275000      3.88897000
  C      2.40547000      5.16262000     -0.88555200
  O      3.32509000      6.03687000     -1.15900000
  C      3.14747000      3.17023000     -3.79984000
  O      3.82724000      3.85095000     -4.64854000
  C     -2.34738000      4.73114000     -3.05173000
  O     -2.81747000      5.78229000     -3.65168000
  C     -4.37473000     -4.26286000      0.37741700
  O     -5.17073000     -5.13981000     -0.21010500
  C     -3.63136000     -4.46519000     -2.15100000
  O     -3.99481000     -5.67679000     -2.49193000
  C      6.16075000      1.86602000     -1.02367000
  O      7.15174000      2.69693000     -1.12888000
  C     -4.80251000     -3.56343000     -1.20677000
  O     -5.88204000     -3.56561000     -1.92895000
  C     -1.94383000     -2.51634000      5.24293000
  O     -1.87357000     -3.20698000      6.32219000
  C     -4.70209000     -4.13340000      1.99504000
  O     -5.86617000     -4.66426000      2.16805000
  C     -2.02716000      1.43544000      5.18855000
  O     -2.78951000      1.90688000      6.10850000
  C     -3.98624000     -0.88531600      4.94858000
  O     -4.83639000     -0.69102400      5.88300000
  C     -1.45527000     -5.12070000     -3.27720000
  O     -1.77907000     -6.33049000     -3.35987000
  C     -2.00082000      3.39572000     -3.78608000
  O     -2.32683000      3.65771000     -4.99833000
  C      6.00624000      0.95496800      0.32568600
  O      7.13071000      0.85768100      0.97726300
  C     -3.67810000      4.40624000     -1.95004000
  O     -4.82527000      4.37020000     -2.56451000
  C     -5.35172000      1.38449000     -0.32279500
  O     -6.72075000      1.57199000     -0.26767400
  C      2.88759000     -3.37471000      3.40803000
  O      3.41858000     -4.52460000      3.64409000
  C     -3.70671000     -3.74086000     -3.56579000
  O     -4.41424000     -4.35535000     -4.43856000
  C      2.51345000     -5.31652000      1.25849000
  O      2.94640000     -6.27499000      2.08627000
  C     -0.58910900      1.28354000      5.40317000
  O     -0.00907339      1.44160000      6.53943000
  C     -2.92293000     -4.98125000      0.69553500
  O     -3.06358000     -6.01736000      1.44570000
  C     -3.50435000     -4.10610000      3.01560000
  O     -3.87968000     -4.87692000      3.97898000
  C     -2.50127000     -5.00605000     -0.84369600
  O     -2.06173000     -6.21067000     -0.98062300
  C     -3.33155000      5.42547000     -0.88752100
  O     -3.63152000      6.60922000     -1.24036000
  C     -4.80891000     -0.76819500     -3.31901000
  O     -5.82802000     -1.01818000     -4.05285000
  C      5.43753000      1.12988000     -2.17390000
  O      6.19225000      0.68706000     -3.11287000
  C      1.33828000      5.93009000     -0.13646000
  O      1.27797000      7.21705000      0.20618100
  C      1.79434000      2.35297000      5.33786000
  O      1.79982000      3.15598000      6.34511000
  C      4.83952000     -2.41751000     -2.22949000
  O      5.92402000     -2.74905000     -2.82112000
  C      3.76413000      0.57827500      4.81934000
  O      4.60418000      0.41228000      5.76714000
  C      5.49082000     -0.24188900     -0.49539800
  O      6.51599000     -0.88095300     -0.92710300
  C      0.93957100     -3.16549000     -4.49798000
  O      0.93416300     -3.69336000     -5.65819000
  C      2.79567000     -2.38639000      4.54081000
  O      3.21495000     -2.78518000      5.69415000
  C     -3.43475000     -2.27564000      5.06981000
  O     -4.44082000     -3.07536000      5.24969000
  C     -0.97270500      5.52719000     -2.16510000
  O     -0.85841300      6.81804000     -2.45867000

