#B3LYP/6-31+G(d) OPT FREQ

110, Energy = -11670.15630036 au

0 1
 Ni      0.03555710     -3.44482000     -2.52457000
 Ni     -1.38619000     -0.23145800     -1.21917000
 Ni      0.43334800     -4.41654000      0.32887300
 Ni     -0.41032400      4.22950000     -0.28878000
 Ni     -1.21565000      2.44883000     -2.01809000
 Ni     -3.26525000      0.58539000      0.71046300
 Ni     -1.02969000     -0.86860000      1.32494000
 Ni     -0.19931700      3.42486000      2.36801000
 Ni      0.33019100     -1.02949000     -3.26504000
 Ni      3.13164000     -0.56188000     -0.73317100
 Ni      0.72979700     -1.66772000     -0.58473200
 Ni      2.68890000     -2.43526000     -2.71187000
 Ni      3.36747000      2.08306000     -1.68885000
 Ni      1.76131000     -0.27613000      3.74864000
 Ni      1.34495000      0.21650400      1.19863000
 Ni      2.87904000     -0.03538770     -3.44849000
 Ni      1.26817000      3.58003000     -2.16963000
 Ni     -2.22623000     -2.12866000     -3.09733000
 Ni      3.57567000     -1.15771000      1.87839000
 Ni     -1.65418000     -2.83879000     -0.43641700
 Ni      3.69618000      1.31823000      1.07242000
 Ni      0.96765300      0.87435800     -1.35240000
 Ni     -2.00812000      0.32261200     -3.78508000
 Ni     -3.71766000     -1.34582000     -1.14714000
 Ni      1.94692000      2.05305000      3.12600000
 Ni     -0.46711300      1.04567000      3.23560000
 Ni      2.97027000     -2.99709000     -0.01572340
 Ni     -1.13361000     -3.50659000      2.13827000
 Ni     -2.93869000      3.00778000     -0.05939480
 Ni      1.58769000      2.75844000      0.37228600
 Ni     -2.56503000      2.45063000      2.55971000
 Ni     -2.90304000     -0.17380100      3.47987000
 Ni      0.45476400      1.62031000     -3.78885000
 Ni     -0.77784400      1.62259000      0.55422100
 Ni     -3.51767000     -2.00342000      1.63884000
 Ni     -0.57595500     -1.48049000      3.77929000
 Ni     -3.58445000      1.10270000     -1.86869000
 Ni      1.17887000     -2.42455000      2.02030000
  C      0.46219000     -2.14677000     -5.23859000
  O      0.45136800     -1.60174000     -6.38225000
  C     -1.46029000      2.68219000      4.74920000
  O     -1.39081000      3.47411000      5.79681000
  C      1.66782000      5.50647000     -0.56324000
  O      2.23343000      6.64059000     -0.42192500
  C      3.57033000      1.67548000     -4.83491000
  O      4.41834000      1.97779000     -5.74207000
  C     -0.69862900     -3.27632000     -4.83611000
  O     -0.46769100     -4.37237000     -5.50134000
  C      0.99451200     -5.18494000      2.52719000
  O      1.25615000     -6.38986000      2.86385000
  C     -5.65456000     -1.81254000      2.35332000
  O     -6.57416000     -2.67311000      2.71424000
  C      5.25991000     -0.16449300      3.26481000
  O      6.21550000     -0.36872600      4.10223000
  C     -1.92377000     -2.24768000     -5.57448000
  O     -1.85148000     -2.72430000     -6.79810000
  C      1.77973000     -6.02043000     -0.77701000
  O      2.03989000     -7.27587000     -0.90192000
  C      4.48837000     -4.21505000     -2.69100000
  O      5.73186000     -4.38449000     -2.97454000
  C      4.79241000      3.02273000     -3.05392000
  O      5.84358000      3.29495000     -3.73134000
  C      5.07145000     -2.28423000     -0.69897900
  O      6.33111000     -2.67065000     -0.91424900
  C      2.76806000     -1.62506000     -5.02909000
  O      3.15620000     -1.56401000     -6.24449000
  C      1.39675000      1.72269000      5.28216000
  O      1.99149000      2.30908000      6.24703000
  C     -1.57273000      1.27508000      5.24607000
  O     -2.51313000      0.99160100      6.12078000
  C      1.50152000     -4.19082000      3.45605000
  O      2.19477000     -4.55206000      4.49845000
  C     -4.11235000      1.26273000     -4.74877000
  O     -4.92138000      1.09070000     -5.73257000
  C      4.77919000     -1.44681000     -3.48342000
  O      5.87781000     -1.60862000     -3.76006000
  C     -4.95214000     -0.98218900     -3.62792000
  O     -5.97096000     -0.41989700     -4.12055000
  C     -1.83196000     -5.27605000     -0.59741000
  O     -2.58366000     -6.26781000     -0.77253800
  C      1.90513000     -2.90910000     -4.89628000
  O      2.00565000     -4.08334000     -5.46122000
  C     -2.68655000     -4.10831000      3.85253000
  O     -3.14053000     -5.00567000      4.65604000
  C     -4.96757000      2.48950000      1.31878000
  O     -5.93817000      3.11220000      1.79617000
  C      0.07886590      1.03629000      5.75085000
  O     -0.16095400      1.13622000      7.02677000
  C     -5.54180000      1.14851000      0.69619800
  O     -6.57796000      1.35916000     -0.04895680
  C     -1.08141000      4.36558000     -3.41356000
  O     -1.10000000      5.10080000     -4.46002000
  C      0.18620300      3.11802000     -5.67354000
  O     -0.51560200      3.95524000     -6.35509000
  C     -2.26384000      4.52504000     -2.51960000
  O     -3.15198000      5.37674000     -2.88417000
  C     -5.82138000     -0.37315300      1.37840000
  O     -7.00951000     -0.63576300      0.96710700
  C      3.60907000      3.68263000     -3.39579000
  O      3.70235000      4.46387000     -4.41370000
  C     -3.89061000     -1.98725000      4.25571000
  O     -4.60480000     -2.42642000      5.24904000
  C     -2.94274000      4.74240000      2.72527000
  O     -3.67415000      5.60517000      3.33369000
  C     -3.02058000     -1.23491000     -5.53547000
  O     -3.96897000     -1.06124000     -6.39230000
  C     -4.40781000     -2.30602000     -3.81711000
  O     -4.99384000     -3.12808000     -4.63143000
  C     -5.27333000     -0.44709000      3.00381000
  O     -5.97264000      0.06626390      3.93628000

