#B3LYP/6-31+G(d) OPT FREQ

110, Energy = -11974.76716903 au

0 1
 Ni      0.12107900     -3.88005000     -2.11002000
 Ni     -1.41623000     -0.21089600     -1.16063000
 Ni      0.51151600     -4.65165000      0.37712900
 Ni     -0.56392100      4.60093000     -0.48365500
 Ni     -1.21485000      2.43790000     -2.00311000
 Ni     -3.34933000      0.58004400      0.68209300
 Ni     -0.95724600     -0.83683300      1.30454000
 Ni      0.18669700      3.63948000      2.20716000
 Ni      0.35019100     -1.00902000     -2.94502000
 Ni      3.35202000     -0.51057200     -0.72678900
 Ni      0.82083400     -1.70074000     -0.53823800
 Ni      2.67007000     -2.38127000     -2.40068000
 Ni      3.48006000      1.96424000     -1.57451000
 Ni      2.09851000     -0.37787300      3.94792000
 Ni      1.49205000      0.27945300      1.18663000
 Ni      2.91690000      0.22588900     -3.26013000
 Ni      1.13067000      3.53492000     -2.37090000
 Ni     -2.28648000     -2.27316000     -3.01723000
 Ni      3.72816000     -1.00363000      2.04994000
 Ni     -1.59495000     -2.74466000     -0.47333700
 Ni      4.00209000      1.64505000      0.83017200
 Ni      1.03021000      0.90999000     -1.31054000
 Ni     -1.87095000      0.37957200     -3.62245000
 Ni     -3.85632000     -1.32207000     -1.02479000
 Ni      2.23077000      2.33174000      2.92077000
 Ni     -0.21079800      0.95056000      3.07778000
 Ni      3.00417000     -3.24482000      0.19952500
 Ni     -1.15718000     -3.32172000      2.04837000
 Ni     -3.00995000      3.20679000     -0.07347740
 Ni      1.74808000      2.91839000      0.32584100
 Ni     -2.43156000      2.30886000      2.35500000
 Ni     -2.65443000     -0.11549600      3.23046000
 Ni      0.79270100      1.55504000     -3.88933000
 Ni     -0.71235500      1.70029000      0.51233800
 Ni     -3.33908000     -1.93274000      1.49568000
 Ni     -0.41118800     -1.52681000      4.05414000
 Ni     -3.66153000      1.35118000     -1.79237000
 Ni      1.21677000     -2.24713000      1.96156000
  C      5.15149000     -3.09387000     -0.71301800
  O      6.04830000     -3.97124000     -0.28088000
  C      3.30159000     -4.99163000     -2.13255000
  O      4.29485000     -5.76417000     -2.09514000
  C      1.87508000     -5.13885000     -2.46893000
  O      1.76366000     -6.39230000     -2.81174000
  C      5.51351000      1.05572000     -0.38746800
  O      6.79629000      1.07215000     -0.28656300
  C      5.07576000     -0.66855000      3.50691000
  O      6.33100000     -0.76677500      3.75934000
  C      1.51260000     -5.68738000      1.69108000
  O      1.29636000     -6.73990000      2.38925000
  C     -5.86116000     -0.23338500     -0.47910800
  O     -7.09328000     -0.44023000     -0.27837100
  C      0.54939700      6.23652000     -0.18658300
  O      0.69886300      7.44155000     -0.54890900
  C     -0.37390500      4.90149000     -3.14103000
  O     -0.42475500      5.47126000     -4.28533000
  C      2.23139000      4.62745000      3.27825000
  O      2.22449000      5.88211000      3.59600000
  C      3.25282000      4.80135000      0.47607300
  O      3.65327000      5.87653000     -0.09301320
  C      1.52518000      5.66393000      0.72694100
  O      2.06812000      6.65006000      1.53835000
  C     -3.72390000     -1.47564000     -4.64392000
  O     -4.68049000     -1.95843000     -5.32310000
  C      5.57392000     -1.53825000     -0.63109700
  O      6.75145000     -1.44995000     -0.18735100
  C      3.42314000      4.03902000      3.23340000
  O      4.58673000      4.48909000      3.34829000
  C     -1.45158000      5.32117000     -2.15167000
  O     -2.40626000      6.11566000     -2.47313000
  C      2.92960000      3.34415000     -4.11044000
  O      3.24794000      4.49503000     -4.67056000
  C     -3.17063000      3.25115000     -3.14833000
  O     -3.63532000      4.16303000     -3.97820000
  C      1.54779000      1.23982000      5.51849000
  O      1.52178000      1.28943000      6.78933000
  C      1.40547000     -2.71172000      4.81835000
  O      1.69895000     -3.61915000      5.72023000
  C      4.23235000      3.74961000      0.76794800
  O      5.37781000      4.25830000      1.01363000
  C     -3.08606000     -4.24891000     -2.47386000
  O     -3.82715000     -5.13257000     -3.00263000
  C      3.99338000      2.08182000     -4.18896000
  O      5.19955000      2.15151000     -4.63730000
  C     -2.71973000      5.40015000      0.65681600
  O     -3.40187000      6.42862000      1.00918000
  C      4.81915000     -3.37278000     -2.27030000
  O      5.60532000     -4.22650000     -2.84296000
  C      4.61855000     -2.07079000     -2.96188000
  O      5.65111000     -1.94283000     -3.66763000
  C     -5.72710000     -1.72816000      1.69583000
  O     -6.81122000     -1.51723000      2.35966000
  C     -0.79325400     -6.07585000     -0.27398400
  O     -1.29339000     -7.15846000      0.19786400
  C      2.74553000      1.97938000     -5.21367000
  O      2.85618000      2.06353000     -6.48236000
  C     -4.98305000      0.94787200      2.21882000
  O     -6.25271000      1.08815000      2.20242000
  C     -1.01978000     -5.63423000     -1.65756000
  O     -1.77506000     -6.40012000     -2.36873000
  C      5.62850000     -0.19816500     -1.48935000
  O      6.26357000     -0.09301620     -2.56959000
  C     -5.25672000      2.27742000     -0.22131100
  O     -6.46006000      2.53733000     -0.01081440
  C     -1.41147000     -0.08348560      5.57502000
  O     -1.40128000      0.08983960      6.83772000
  C      4.13609000     -0.09871970      4.49537000
  O      4.62299000      0.44620700      5.56226000
  C      2.78468000     -4.96167000      1.66388000
  O      3.71051000     -5.37577000      2.45324000

