#B3LYP/6-31+G(d) OPT FREQ

110, Energy = -12246.79306700 au

0 1
 Ni      0.11760200     -3.81390000     -2.15946000
 Ni     -1.43123000     -0.29398500     -1.20439000
 Ni      0.94622100     -4.62485000      0.37671400
 Ni     -0.58162700      4.41675000     -0.37047200
 Ni     -1.19726000      2.29855000     -1.94886000
 Ni     -3.06195000      0.47604500      0.63905900
 Ni     -0.98135100     -0.96969600      1.32668000
 Ni     -0.05380300      3.46424000      2.50434000
 Ni      0.29781100     -1.00638000     -2.99188000
 Ni      3.51522000     -0.54165300     -0.74154100
 Ni      0.77447800     -1.73232000     -0.48371900
 Ni      2.44222000     -2.70721000     -2.28947000
 Ni      3.75852000      2.04346000     -1.60439000
 Ni      1.67118000     -0.25524400      3.90828000
 Ni      1.43719000      0.22202900      1.21324000
 Ni      3.08025000      0.26578100     -3.61555000
 Ni      1.42358000      3.29045000     -2.23910000
 Ni     -2.49129000     -2.21250000     -2.82120000
 Ni      3.67029000     -1.19755000      1.81751000
 Ni     -1.81400000     -3.01257000     -0.47337100
 Ni      4.20651000      1.28425000      1.12724000
 Ni      1.08287000      0.85702700     -1.32636000
 Ni     -1.92146000      0.23132500     -4.16482000
 Ni     -4.28602000     -1.51257000     -1.14489000
 Ni      1.97138000      2.12389000      2.99206000
 Ni     -0.42479600      1.03569000      3.09799000
 Ni      3.22997000     -3.27258000      0.19807900
 Ni     -1.17053000     -3.72235000      1.97314000
 Ni     -2.94546000      3.46956000     -0.13554700
 Ni      1.80208000      2.91064000      0.39679300
 Ni     -2.47647000      2.70586000      2.54030000
 Ni     -2.77191000     -0.35428400      3.22875000
 Ni      0.70535300      1.27124000     -4.09655000
 Ni     -0.72276800      1.68252000      0.56172600
 Ni     -3.56497000     -2.14018000      1.35292000
 Ni     -0.61598500     -1.48556000      3.93104000
 Ni     -3.59677000      1.28909000     -2.01436000
 Ni      1.12534000     -2.47631000      2.03143000
  C      3.50770000      4.13277000      0.00588327
  O      3.92838000      5.30352000      0.34015800
  C      2.02504000     -5.55807000     -0.98052800
  O      2.39028000     -6.79046000     -0.85202900
  C      1.14945000      5.94727000     -0.09522960
  O      1.30883000      7.20157000      0.15259100
  C      4.83028000      0.09673280     -2.70762000
  O      6.11128000     -0.14896700     -3.10361000
  C     -5.67999000     -1.26423000      0.82832500
  O     -6.68852000     -1.53480000      1.58251000
  C     -3.95022000      3.27649000     -2.53985000
  O     -4.57315000      3.94482000     -3.46094000
  C      5.48540000      0.97369200     -0.24365100
  O      6.82985000      0.87850300     -0.26717700
  C      0.52571600     -5.67210000      2.09082000
  O      0.68524100     -6.93861000      2.24721000
  C      3.78071000     -3.80849000      2.32905000
  O      4.63021000     -4.06442000      3.25651000
  C      5.23953000     -1.76588000     -0.24781100
  O      6.50447000     -1.48399000     -0.23869600
  C     -3.33316000     -3.97943000     -1.68235000
  O     -3.66644000     -5.19812000     -1.99431000
  C      2.86304000     -0.56639400     -5.41681000
  O      3.61288000     -1.28065000     -6.17889000
  C     -1.32162000      2.88026000      4.61891000
  O     -2.02329000      3.10722000      5.66934000
  C      0.70105800     -4.59308000      3.15453000
  O      1.17986000     -4.94442000      4.29480000
  C     -3.96105000      0.17856000     -4.69234000
  O     -4.49278000     -0.02006390     -5.82290000
  C     -2.21805000      4.91827000     -1.52271000
  O     -2.69873000      5.92154000     -2.27761000
  C      4.98418000     -3.20187000     -0.68748900
  O      5.83983000     -3.99060000     -1.22615000
  C      0.19741100      0.02366660      5.80588000
  O     -0.49135800     -0.05045740      6.88817000
  C      0.17907300      3.20492000      4.66568000
  O      0.71207300      3.71120000      5.71691000
  C      3.11123000      3.30851000     -4.20463000
  O      2.82477000      4.32745000     -4.93746000
  C     -4.59850000     -3.70910000     -0.68579200
  O     -5.82513000     -3.85460000     -1.00540000
  C     -3.34454000      4.37838000      1.73129000
  O     -3.88690000      5.53574000      2.14729000
  C     -2.71097000     -4.82852000      1.28909000
  O     -2.73665000     -6.09600000      1.53732000
  C      2.56150000     -4.85187000     -2.22949000
  O      3.19466000     -5.58825000     -3.07658000
  C      3.21359000      1.86577000     -4.79154000
  O      4.00858000      1.87728000     -5.80381000
  C      2.98769000     -4.93304000      1.76054000
  O      3.06462000     -6.14968000      2.16171000
  C     -1.36495000     -5.35472000     -2.08988000
  O     -1.62656000     -6.43046000     -2.63857000
  C      4.17306000      3.25072000     -3.08312000
  O      5.30976000      3.52894000     -3.61194000
  C     -4.11169000     -4.40071000      0.75537600
  O     -5.17290000     -5.13278000      0.87427400
  C     -4.58350000     -1.73747000     -3.11105000
  O     -5.56640000     -1.93333000     -3.97643000
  C      5.02964000      0.67212900      2.90561000
  O      6.07732000      0.99831000      3.59681000
  C     -0.97769600      0.01356080     -5.71905000
  O     -1.25451000     -0.47787300     -6.89775000
  C      1.42820000      0.78359700      5.75950000
  O      1.96481000      1.56236000      6.62354000
  C     -5.87682000     -0.40413500     -0.34949000
  O     -6.86344000      0.36102900     -0.63452100
  C     -3.13648000     -2.26604000      4.37531000
  O     -3.90140000     -2.61452000      5.33908000
  C      1.60662000      0.10777000     -5.71433000
  O      1.18560000      0.13521800     -6.93281000

