#B3LYP/6-31+G(d) OPT FREQ

110, Energy = -11896.11293109 au

0 1
 Ni      0.12124400     -3.39413000     -2.52030000
 Ni     -1.43342000     -0.33922600     -1.29260000
 Ni      0.51784800     -4.38953000      0.35485600
 Ni     -0.44764100      4.26372000     -0.21470300
 Ni     -1.21800000      2.21692000     -1.92860000
 Ni     -3.07746000      0.44303800      0.58609200
 Ni     -0.99902200     -1.00533000      1.30714000
 Ni     -0.10445100      3.40722000      2.26707000
 Ni      0.29949100     -1.05604000     -3.32769000
 Ni      3.35378000     -0.57693000     -0.73615400
 Ni      0.74192800     -1.71242000     -0.56995000
 Ni      2.70585000     -2.50075000     -2.77523000
 Ni      3.45677000      1.99739000     -1.50955000
 Ni      1.89989000     -0.35828600      3.64590000
 Ni      1.39627000      0.19665400      1.16721000
 Ni      2.78650000      0.05125810     -3.15551000
 Ni      1.33152000      3.39424000     -2.18552000
 Ni     -2.05519000     -2.23218000     -3.34188000
 Ni      3.52211000     -1.20581000      1.74386000
 Ni     -1.88891000     -2.98910000     -0.65857000
 Ni      3.90416000      1.28685000      1.02997000
 Ni      0.98443800      0.81609200     -1.31691000
 Ni     -2.07474000      0.26444700     -3.97339000
 Ni     -4.07001000     -1.31004000     -1.42744000
 Ni      2.34804000      2.15750000      3.05247000
 Ni     -0.36734500      0.91677500      2.99662000
 Ni      3.04582000     -3.01463000     -0.07058720
 Ni     -1.18807000     -3.78089000      2.02923000
 Ni     -3.01562000      3.21288000     -0.22389300
 Ni      1.63286000      2.71835000      0.42506300
 Ni     -2.70450000      2.25065000      2.57915000
 Ni     -3.06973000     -0.33498300      3.22310000
 Ni      0.48035000      1.37293000     -3.79302000
 Ni     -0.78632100      1.60935000      0.52574300
 Ni     -3.40423000     -2.36746000      1.40042000
 Ni     -0.52418500     -1.77907000      3.78786000
 Ni     -3.64125000      1.23068000     -2.11872000
 Ni      1.27675000     -2.49762000      2.10977000
  C     -3.41648000     -4.40387000     -3.11043000
  O     -3.51618000     -5.50570000     -3.73255000
  C      1.76975000     -3.05912000     -4.40841000
  O      2.31607000     -3.41564000     -5.51335000
  C      0.30831100     -1.29319000     -5.37184000
  O      0.68774500     -1.13993000     -6.52748000
  C      0.24204000     -2.81954000     -5.05524000
  O     -0.40435100     -3.66566000     -5.75465000
  C     -1.61488000     -5.39269000     -0.16251000
  O     -1.92111000     -6.49194000     -0.84692800
  C     -3.20769000     -2.24896000      4.40687000
  O     -3.99403000     -2.63530000      5.34959000
  C      4.56824000     -1.38531000     -3.22418000
  O      5.91500000     -1.62951000     -3.55310000
  C     -6.11903000     -0.59201300     -2.12610000
  O     -6.89561000     -0.60521200     -3.12351000
  C      3.29433000      3.74435000     -3.37690000
  O      3.81012000      4.42119000     -4.28256000
  C     -3.82239000      3.64686000     -2.26772000
  O     -4.33789000      4.63982000     -2.89212000
  C     -4.73742000     -0.72093000     -4.28422000
  O     -5.46132000     -1.07954000     -5.31750000
  C      5.06765000     -2.16623000     -0.39592900
  O      6.25474000     -2.54773000     -0.66997600
  C      1.58472000     -5.47322000      1.67989000
  O      2.31814000     -6.51909000      1.88230000
  C     -3.43258000     -4.04912000     -1.61860000
  O     -4.12017000     -5.06854000     -1.21639000
  C     -4.02146000     -4.08626000      1.06554000
  O     -5.23003000     -4.54573000      1.07521000
  C     -3.34025000     -1.01770000     -5.99829000
  O     -4.02549000     -1.73435000     -6.84151000
  C      2.31449000     -3.53529000      3.65035000
  O      3.34882000     -4.24200000      3.91109000
  C     -4.69649000      0.65823300     -3.68871000
  O     -5.61558000      1.25980000     -4.36125000
  C     -3.13696000      0.35115500     -5.70078000
  O     -4.04501000      0.79061400     -6.50622000
  C     -0.69497400     -5.91947000      2.70300000
  O     -0.65465000     -7.14282000      3.08687000
  C     -5.96661000     -0.22123400     -0.77095800
  O     -6.91597000      0.22553700     -0.03193020
  C     -4.82368000     -2.15361000     -3.46485000
  O     -5.89770000     -2.80813000     -3.36844000
  C      4.52581000     -3.98829000     -2.30303000
  O      5.75298000     -4.08560000     -2.68169000
  C     -2.09928000     -1.69747000     -5.41265000
  O     -1.72895000     -2.11006000     -6.59389000
  C     -5.08154000      0.05917950      3.27762000
  O     -6.18836000     -0.55341100      3.50281000
  C      3.31550000      4.16679000      2.62798000
  O      3.92452000      5.05499000      3.31668000
  C      1.39045000      5.68215000      0.25649900
  O      1.66740000      6.93682000      0.31142700
  C     -3.18570000      5.30593000      0.69367300
  O     -4.13309000      6.12494000      0.95890000
  C     -3.94338000     -3.37792000     -4.05043000
  O     -4.21537000     -3.65507000     -5.28009000
  C      0.74597700     -5.61401000      2.89837000
  O      1.19584000     -5.84952000      4.07211000
  C     -4.80555000      1.45496000      3.01303000
  O     -5.82112000      2.25829000      3.15782000
  C     -2.05320000      2.83482000      4.74587000
  O     -2.63800000      3.31592000      5.78486000
  C     -2.95172000     -5.20045000      1.00706000
  O     -3.25824000     -6.40713000      1.37614000
  C      4.11070000      1.17356000      4.03456000
  O      4.97592000      1.57015000      4.90620000
  C      5.47270000      0.80898100     -0.54631200
  O      6.78497000      0.67688800     -0.60614900
  C      1.19738000     -3.08976000      4.53181000
  O      0.95257900     -3.89836000      5.50137000

