110
Energy = -10086.63628694 au
 Ni      0.07931520     -3.46728000     -2.24299000
 Ni     -1.36627000     -0.22870700     -1.15925000
 Ni      0.47524000     -4.16180000      0.21816200
 Ni     -0.48349900      4.16818000     -0.23158500
 Ni     -1.13402000      2.23661000     -1.90837000
 Ni     -3.03179000      0.49890200      0.66080400
 Ni     -0.94633000     -0.86104200      1.28566000
 Ni     -0.08325720      3.46017000      2.24430000
 Ni      0.29679000     -0.96013600     -2.98251000
 Ni      3.02516000     -0.49053900     -0.65433300
 Ni      0.71333900     -1.60806000     -0.53211700
 Ni      2.40308000     -2.32634000     -2.39529000
 Ni      3.29037000      1.98432000     -1.43036000
 Ni      1.82359000     -0.40288400      3.65746000
 Ni      1.36640000      0.22843800      1.15949000
 Ni      2.62927000      0.15639000     -3.14443000
 Ni      1.17219000      3.37114000     -2.06124000
 Ni     -2.04782000     -2.07036000     -2.91312000
 Ni      3.49186000     -1.12996000      1.81444000
 Ni     -1.58644000     -2.69281000     -0.40570600
 Ni      3.72238000      1.33908000      1.06086000
 Ni      0.94615300      0.86146000     -1.28484000
 Ni     -1.82644000      0.40601800     -3.64715000
 Ni     -3.71506000     -1.33671000     -1.05727000
 Ni      2.04574000      2.05998000      2.89177000
 Ni     -0.29967300      0.96285900      2.98813000
 Ni      2.80443000     -2.98409000      0.08856000
 Ni     -1.18338000     -3.36949000      2.04928000
 Ni     -2.81310000      2.98287000     -0.08164490
 Ni      1.58459000      2.68962000      0.40714100
 Ni     -2.41948000      2.32166000      2.39582000
 Ni     -2.65055000     -0.15152700      3.15160000
 Ni      0.52505400      1.53041000     -3.76358000
 Ni     -0.71405300      1.60814000      0.53226000
 Ni     -3.28700000     -1.98001000      1.43094000
 Ni     -0.53553700     -1.52599000      3.77846000
 Ni     -3.49057000      1.12942000     -1.81387000
 Ni      1.13510000     -2.22980000      1.90279000
  C     -0.29083100      4.68577000     -3.78184000
  O     -0.61841800      5.55374000     -4.59683000
  C     -2.90332000      3.34708000      4.65838000
  O     -3.11027000      3.76786000      5.80832000
  C     -5.60786000      0.39315600      0.89077000
  O     -6.84748000      0.59907700      1.16049000
  C     -4.70520000     -0.68693700     -3.90902000
  O     -5.71430000     -0.80021000     -4.67658000
  C     -0.01110240     -5.09450000      3.45316000
  O      0.42391200     -5.99602000      4.26053000
  C     -1.48793000      3.37630000     -4.52817000
  O     -2.00810000      4.19541000     -5.34601000
  C     -5.42138000     -1.17799000      2.89724000
  O     -6.66576000     -0.98975600      3.15864000
  C      3.80101000      1.41954000      4.85699000
  O      4.68383000      1.64636000      5.68796000
  C      1.41076000      5.84364000      0.38074500
  O      2.06896000      6.93288000      0.56091000
  C      3.67113000     -0.45996200      5.36251000
  O      4.59756000     -0.37924600      6.22434000
  C      5.03897000      1.58422000      3.36596000
  O      6.02338000      1.82095000      4.07596000
  C     -2.96976000     -0.11445700     -6.05296000
  O     -3.95290000     -0.24888300     -6.87138000
  C     -0.09855940      1.68687000      5.43123000
  O     -0.17586200      2.07802000      6.63379000
  C     -5.03790000      1.21146000      2.96045000
  O     -6.26789000      1.32732000      3.29677000
  C      2.67957000      2.57827000     -4.99012000
  O      3.32327000      3.17978000     -5.92372000
  C      1.37353000     -5.63590000     -2.55718000
  O      1.88259000     -6.74242000     -2.96904000
  C      2.62550000     -2.71145000      4.59739000
  O      3.10798000     -3.59141000      5.40080000
  C     -0.89385100      5.67294000     -2.27413000
  O     -1.39319000      6.63958000     -2.98189000
  C     -2.46538000     -5.34698000      0.72773600
  O     -3.17534000     -6.40817000      0.63894000
  C      1.45094000     -1.44114000     -5.37366000
  O      1.52005000     -1.72325000     -6.61402000
  C     -4.39164000      1.26166000     -4.65457000
  O     -5.34910000      1.14256000     -5.49625000
  C      2.08241000     -3.09730000     -4.77329000
  O      2.25154000     -3.59930000     -5.97278000
  C     -3.95146000     -2.35354000     -4.45626000
  O     -4.86225000     -2.61568000     -5.30657000
  C     -0.94462500      3.40019000      4.80726000
  O     -1.01317000      3.85227000      5.99034000
  C      5.75283000      0.97642300     -1.18820000
  O      6.99473000      0.79325500     -1.46295000
  C     -1.87453000     -2.73742000      5.46850000
  O     -2.42486000     -3.36872000      6.43260000
  C     -3.47092000     -2.32891000      4.58967000
  O     -4.23033000     -2.90052000      5.42948000
  C     -5.06738000      2.63954000      1.72308000
  O     -6.30180000      2.92954000      1.91960000
  C     -1.89156000     -1.96929000     -5.52523000
  O     -1.77971000     -2.34163000     -6.73702000
  C     -1.07340000     -6.01947000     -0.59497100
  O     -1.67372000     -7.12179000     -0.82214700
  C      3.82353000      3.61446000     -3.45264000
  O      4.51580000      4.23304000     -4.33771000
  C     -2.10016000      1.64185000      5.25550000
  O     -2.25699000      1.95154000      6.46532000
  C      1.07529000      0.17420600      5.94453000
  O      1.03279000      0.52167800      7.30198000
  C     -0.97293200     -0.63317700      6.06529000
  O     -1.09392000     -0.26681900      7.28724000
  C     -0.81985700     -3.72553000     -4.86618000
  O     -0.68356300     -4.14864000     -6.06834000
  C      5.00831000     -0.31962600      3.76749000
  O      5.97358000     -0.23323900      4.55712000
