110
Energy = -12380.67835836 au
 Ni      0.20244400     -3.65481000     -2.34010000
 Ni     -1.44465000     -0.30072500     -1.19671000
 Ni      0.85032700     -4.57321000      0.16892400
 Ni     -0.27448400      4.55419000     -0.29354900
 Ni     -1.12933000      2.19665000     -1.90750000
 Ni     -3.28014000      0.64970800      0.66640100
 Ni     -0.96051200     -0.94593300      1.31838000
 Ni     -0.00843224      3.84476000      2.22501000
 Ni      0.27273500     -1.14801000     -3.30596000
 Ni      3.39512000     -0.57835700     -0.69998100
 Ni      0.73550400     -1.69903000     -0.56751400
 Ni      2.39687000     -2.33814000     -2.70518000
 Ni      3.55981000      1.84227000     -1.73343000
 Ni      1.84554000     -0.42379300      3.74731000
 Ni      1.48274000      0.16447900      1.21423000
 Ni      2.80830000      0.32017200     -3.65415000
 Ni      1.26836000      3.26268000     -2.08601000
 Ni     -2.20166000     -2.31887000     -2.97632000
 Ni      3.89425000     -1.37720000      1.96074000
 Ni     -1.72208000     -2.94241000     -0.50309400
 Ni      4.06277000      1.29485000      0.89581700
 Ni      1.05319000      0.76633200     -1.35509000
 Ni     -2.19274000      0.13056200     -3.74970000
 Ni     -3.96346000     -1.36263000     -1.18975000
 Ni      2.09503000      2.32183000      3.13737000
 Ni     -0.30707600      1.13969000      3.27176000
 Ni      2.84056000     -2.98244000      0.06136870
 Ni     -1.12940000     -3.78243000      2.01148000
 Ni     -2.80486000      3.01239000     -0.04652380
 Ni      1.66035000      2.64118000      0.42279800
 Ni     -2.52447000      2.42918000      2.68715000
 Ni     -2.69255000     -0.13811000      3.08320000
 Ni      0.53898600      1.30626000     -3.91673000
 Ni     -0.73022400      1.62728000      0.63228800
 Ni     -3.56131000     -1.91141000      1.27633000
 Ni     -0.51640800     -1.40864000      3.90468000
 Ni     -3.75024000      1.12024000     -1.77672000
 Ni      1.30853000     -2.47277000      2.08148000
  C      0.51608300     -4.93972000      3.04154000
  O      0.28428000     -5.59878000      4.11767000
  C      0.01129310      0.02385160      5.51489000
  O     -0.20408500      0.25248000      6.79636000
  C      2.53909000     -1.34405000     -5.44936000
  O      3.34040000     -1.61359000     -6.40879000
  C     -4.40920000     -0.63111600     -4.14745000
  O     -5.39894000      0.07060550     -4.51470000
  C     -2.96544000     -4.52609000     -1.23750000
  O     -3.36929000     -5.25944000     -2.20594000
  C      3.58567000      3.97958000      2.87799000
  O      3.87723000      5.06273000      3.49846000
  C     -1.93867000      5.39176000     -1.64585000
  O     -2.08446000      6.45986000     -2.33831000
  C      3.82727000      2.84086000     -3.76920000
  O      4.20136000      3.96452000     -4.26651000
  C     -5.43801000     -1.00830000      0.92555200
  O     -6.60742000     -1.51390000      0.78470700
  C     -5.51830000      1.35064000     -0.71063700
  O     -6.79329000      1.57585000     -0.73488000
  C      1.09203000      5.90794000      0.20329200
  O      1.68699000      6.86558000     -0.41969100
  C     -5.70156000      0.20387100      1.84542000
  O     -6.62145000      0.18197400      2.77677000
  C      0.53918900     -2.71376000     -4.68611000
  O      0.18938100     -2.92559000     -5.90924000
  C     -1.47179000      5.45588000      2.66042000
  O     -1.48049000      6.54995000      3.31616000
  C     -2.57539000     -5.08223000      1.34278000
  O     -2.86355000     -6.25300000      1.78389000
  C      5.81560000      1.21990000      0.04694660
  O      6.97680000      1.11565000      0.58783000
  C      5.50990000     -1.38512000     -0.00627392
  O      6.45803000     -1.45574000     -0.87320300
  C     -3.49934000     -4.87666000      0.13834300
  O     -4.73520000     -5.23557000      0.23004500
  C      1.86958000     -5.94513000     -0.74814200
  O      2.73005000     -6.84751000     -0.42452200
  C     -2.69626000      3.02677000      4.65181000
  O     -3.51809000      3.60470000      5.45443000
  C     -4.91423000      1.49228000      1.74447000
  O     -5.73628000      2.45487000      1.94010000
  C      1.25340000     -5.64486000     -2.03801000
  O      1.41310000     -6.54537000     -2.94676000
  C      1.51312000     -0.11874300     -5.42049000
  O      1.32688000      0.24058700     -6.64463000
  C     -3.78141000     -2.73746000     -4.62937000
  O     -3.99647000     -3.79869000     -5.28867000
  C      5.44996000      1.05299000     -1.41292000
  O      6.30351000      0.67552000     -2.29879000
  C      3.82574000      1.63279000     -4.59512000
  O      4.32416000      1.54685000     -5.78471000
  C      2.10533000     -4.40837000      2.72796000
  O      3.04424000     -4.72263000      3.54358000
  C      1.66562000      2.21932000      5.25218000
  O      1.75699000      3.00583000      6.24560000
  C      5.79839000     -1.58272000      1.40403000
  O      6.90456000     -1.90205000      1.97769000
  C      3.73706000     -2.39486000      3.77381000
  O      4.52190000     -3.19001000      4.42989000
  C      1.48006000     -5.67529000      1.90067000
  O      1.93785000     -6.87239000      1.85757000
  C     -3.48405000     -1.30420000     -5.31724000
  O     -3.66669000     -1.17858000     -6.57042000
  C     -4.78752000     -2.09772000     -3.49541000
  O     -5.93725000     -2.66346000     -3.48188000
  C     -1.37374000      2.52836000      4.89685000
  O     -0.82606200      2.81898000      6.02762000
  C      2.14870000     -2.79384000     -4.81293000
  O      2.78916000     -3.80531000     -5.20707000
  C      1.19588000      5.54195000      1.61014000
  O      1.83406000      6.33293000      2.40828000
