110
Energy = -12273.91123294 au
 Ni      0.29725600     -3.62624000     -2.34384000
 Ni     -1.48833000     -0.29420800     -1.24386000
 Ni      0.54061700     -4.30981000      0.15263600
 Ni     -0.53307300      4.07561000     -0.18923100
 Ni     -1.20754000      2.17218000     -1.92437000
 Ni     -3.26030000      0.49177100      0.71474500
 Ni     -1.03158000     -0.91010000      1.30047000
 Ni     -0.20636900      3.73288000      2.50617000
 Ni      0.32842200     -1.11946000     -3.37757000
 Ni      3.25947000     -0.48466000     -0.60164000
 Ni      0.71898700     -1.65229000     -0.59327000
 Ni      2.62985000     -2.40903000     -2.53864000
 Ni      3.54605000      2.15282000     -1.35663000
 Ni      1.88644000     -0.45716500      3.56015000
 Ni      1.41354000      0.22087200      1.15898000
 Ni      2.65179000      0.17382800     -3.08053000
 Ni      1.34122000      3.60833000     -1.99709000
 Ni     -2.04042000     -2.18867000     -3.13514000
 Ni      3.89498000     -1.35833000      1.86835000
 Ni     -1.74647000     -2.96434000     -0.33573300
 Ni      3.84027000      1.39224000      0.95063300
 Ni      0.97779400      0.90216100     -1.29703000
 Ni     -2.02300000      0.17848800     -4.17227000
 Ni     -4.06531000     -1.25855000     -1.02110000
 Ni      1.99941000      2.26964000      2.83993000
 Ni     -0.45030900      1.08692000      3.09321000
 Ni      2.88252000     -2.97555000      0.01848240
 Ni     -1.02906000     -3.54713000      2.12957000
 Ni     -3.15372000      2.90154000     -0.04032810
 Ni      1.74025000      2.93463000      0.48536900
 Ni     -2.76933000      2.62136000      2.55749000
 Ni     -2.96931000     -0.12195100      3.16491000
 Ni      0.42205600      1.39955000     -3.93905000
 Ni     -0.77911500      1.64278000      0.60836400
 Ni     -3.60441000     -2.15759000      1.29005000
 Ni     -0.50681600     -1.64572000      3.73117000
 Ni     -4.08301000      1.21361000     -1.97419000
 Ni      1.28078000     -2.43435000      2.03854000
  C      2.32712000      5.24497000     -1.51896000
  O      2.40771000      6.43766000     -2.00537000
  C     -4.89199000      0.07135360      3.29374000
  O     -5.85686000      0.07318360      4.13108000
  C     -2.18978000     -1.27188000     -5.65881000
  O     -2.31684000     -0.99595800     -6.92464000
  C      2.11579000     -5.66280000      1.83839000
  O      3.04862000     -5.91067000      2.69633000
  C     -6.35181000     -0.36067500     -1.35446000
  O     -7.16163000      0.29533300     -0.55677200
  C     -3.72519000     -4.27605000      0.63576800
  O     -4.85327000     -4.90953000      0.64200900
  C      4.70170000     -2.67554000     -3.06620000
  O      5.55672000     -2.87619000     -4.00200000
  C     -2.07366000     -2.62495000     -5.18302000
  O     -1.99455000     -3.65896000     -5.95114000
  C     -5.00838000      2.80038000      0.74936000
  O     -6.20658000      3.25844000      0.63155100
  C      0.53969900     -1.97108000     -5.14735000
  O      0.24117800     -1.77245000     -6.37722000
  C     -2.53756000     -5.01309000      0.15999400
  O     -2.50114000     -6.26785000     -0.08639230
  C      4.99004000     -2.61401000     -1.66616000
  O      6.17017000     -2.78607000     -1.20184000
  C      0.70472000     -5.87237000     -1.71661000
  O      1.29847000     -6.94321000     -2.10916000
  C      1.82820000      4.71528000      2.49280000
  O      2.35155000      5.86798000      2.76209000
  C     -2.05303000      5.03889000      2.90946000
  O     -1.95972000      6.26425000      3.30058000
  C     -5.66501000      3.82260000     -1.92443000
  O     -6.59979000      4.68438000     -1.93116000
  C      2.27634000     -6.43037000      0.50801600
  O      2.79604000     -7.48987000     -0.15845100
  C     -1.26159000      2.88953000      4.48295000
  O     -1.41133000      3.30418000      5.73441000
  C     -3.39622000      4.50161000      2.90780000
  O     -4.52198000      5.09062000      3.11422000
  C     -5.53740000      0.33205600      1.90428000
  O     -6.67286000      0.86967200      1.54918000
  C     -5.72612000      2.42779000     -1.70917000
  O     -6.93567000      2.00419000     -1.42312000
  C      0.72513500     -5.36952000      2.77397000
  O      0.40898600     -6.55090000      3.20024000
  C      4.02843000      3.83756000      0.22196200
  O      5.04786000      4.40090000      0.73732400
  C      5.60908000      1.23168000     -1.76731000
  O      6.72143000      1.62165000     -2.25806000
  C     -4.90949000      2.16991000      2.15407000
  O     -5.59368000      2.55258000      3.15672000
  C     -5.65829000      0.15993300     -2.65399000
  O     -6.52804000      0.07341450     -3.59796000
  C     -6.34481000     -1.85053000     -1.34699000
  O     -7.56491000     -2.19496000     -1.23795000
  C      1.26210000     -3.15186000     -4.60452000
  O      1.67892000     -3.94933000     -5.52170000
  C     -5.39659000     -1.14492000      1.15510000
  O     -6.60835000     -1.51531000      1.24832000
  C      0.51337300     -4.15516000      3.73936000
  O      0.71776800     -4.45036000      4.97743000
  C     -0.33039700      0.52080000     -5.77462000
  O     -0.17631100      0.43060800     -7.07168000
  C     -4.03442000      0.35801200     -4.48686000
  O     -4.80584000      0.10292300     -5.48763000
  C      3.56378000     -2.87541000      3.30269000
  O      4.28215000     -3.68360000      4.00911000
  C      3.12122000      5.04828000     -0.25902000
  O      3.34384000      6.13751000      0.39753900
  C      5.77491000     -1.35248000      1.24630000
  O      6.85388000     -1.96713000      1.58260000
  C      5.57156000     -0.38201300      0.16748100
  O      6.59431000     -0.07836460     -0.59452100
