110
Energy = -11888.74339017 au
 Ni     -0.06035650     -3.72259000     -2.30990000
 Ni     -1.44246000     -0.27341000     -1.21943000
 Ni      0.57217100     -4.19486000      0.23082700
 Ni     -0.57029200      4.14852000     -0.46593800
 Ni     -1.17050000      2.33444000     -2.04475000
 Ni     -3.14500000      0.50265400      0.64248900
 Ni     -0.96995600     -0.90541300      1.30779000
 Ni     -0.09710560      3.45443000      2.19278000
 Ni      0.24451800     -1.02217000     -3.25748000
 Ni      3.24616000     -0.54621300     -0.78468900
 Ni      0.76226000     -1.66811000     -0.59329200
 Ni      2.66932000     -2.46219000     -2.33933000
 Ni      3.33847000      2.18642000     -1.66779000
 Ni      1.70731000     -0.30986100      3.84204000
 Ni      1.39606000      0.19931100      1.16980000
 Ni      2.69577000      0.19270700     -3.18859000
 Ni      1.23681000      3.40149000     -2.46303000
 Ni     -2.29422000     -2.31255000     -3.13776000
 Ni      3.62652000     -1.19329000      1.68048000
 Ni     -1.69981000     -2.83540000     -0.48348300
 Ni      3.80216000      1.25025000      0.93288500
 Ni      0.96011600      0.86766900     -1.38001000
 Ni     -1.92279000      0.19155400     -3.72430000
 Ni     -4.02799000     -1.41462000     -1.26802000
 Ni      2.06365000      2.11953000      2.91016000
 Ni     -0.35526700      0.98297300      3.16645000
 Ni      3.13234000     -3.12901000      0.11103300
 Ni     -1.43058000     -3.45627000      2.22497000
 Ni     -3.04612000      3.07958000      0.03305120
 Ni      1.59413000      2.67824000      0.33188800
 Ni     -2.51362000      2.56086000      2.41894000
 Ni     -2.82747000     -0.28432300      3.32990000
 Ni      0.59265200      1.60545000     -4.30064000
 Ni     -0.76715400      1.61211000      0.51445900
 Ni     -3.31900000     -2.05872000      1.53146000
 Ni     -0.63412600     -1.50177000      3.84867000
 Ni     -3.82381000      1.12191000     -1.70498000
 Ni      1.19896000     -2.38475000      1.95305000
  C     -1.45323000     -5.23881000     -1.66232000
  O     -1.62898000     -6.36021000     -2.31402000
  C     -0.02491310     -0.61287800     -5.60399000
  O     -0.34286200     -1.31848000     -6.62159000
  C     -5.30417000      2.16723000     -0.22246100
  O     -6.40161000      2.48415000      0.38105800
  C     -4.72791000     -1.34002000     -3.53656000
  O     -6.05514000     -1.48427000     -3.80973000
  C      1.68054000     -5.73296000     -1.92441000
  O      1.60610000     -7.01399000     -1.85939000
  C      5.53196000     -0.09320750      0.10891400
  O      6.74956000      0.23788000     -0.24446200
  C     -3.30556000     -3.42026000      3.90723000
  O     -4.39684000     -3.63311000      4.52173000
  C      2.08560000     -4.69451000      2.22225000
  O      2.48320000     -5.57969000      3.05163000
  C     -0.49097800     -3.07315000     -4.72316000
  O     -0.41984900     -3.57412000     -5.88858000
  C     -3.26054000      4.71513000      2.00426000
  O     -3.67055000      5.93613000      1.85234000
  C     -2.74820000     -4.89175000      0.91938300
  O     -3.42410000     -5.87825000      1.36457000
  C      1.97459000      3.71359000     -4.49617000
  O      2.24416000      4.68015000     -5.30847000
  C     -5.85168000     -0.27443000     -0.84828900
  O     -6.98329000     -0.48582800     -0.27024700
  C      1.66075000      2.57562000      5.26848000
  O      1.77790000      3.27095000      6.34753000
  C     -6.04762000      1.16561000     -1.27887000
  O     -7.00325000      1.62219000     -2.02042000
  C     -2.84667000     -1.13722000      5.59729000
  O     -3.65725000     -1.76598000      6.37854000
  C     -3.83087000     -1.02663000     -4.66821000
  O     -4.28253000     -1.00449000     -5.86443000
  C     -2.85262000     -5.15157000     -0.94902400
  O     -3.65428000     -6.17175000     -0.91958000
  C      0.91441500      0.52756900     -5.89822000
  O      1.47643000      0.62779200     -7.03167000
  C      5.67765000     -2.20563000     -0.09457150
  O      6.98113000     -2.07541000     -0.00533258
  C      2.68776000     -4.98590000     -2.53312000
  O      3.69107000     -5.57507000     -3.09113000
  C     -3.80978000     -4.02206000     -1.85466000
  O     -5.06274000     -4.30341000     -1.74005000
  C     -2.03961000     -3.92787000      4.48519000
  O     -2.00412000     -4.56246000      5.58435000
  C      4.82756000     -1.48552000     -2.55626000
  O      5.97823000     -1.25840000     -3.05371000
  C      3.27320000      2.90152000     -4.55764000
  O      3.82214000      2.37986000     -5.58618000
  C     -1.01518000      4.24047000     -4.03103000
  O     -1.54476000      5.00108000     -4.94441000
  C     -3.48491000      4.22666000      3.36492000
  O     -4.04989000      5.18493000      4.16710000
  C     -3.20086000     -4.09136000     -3.23038000
  O     -3.33831000     -5.18927000     -3.87936000
  C     -0.26335500      3.23073000     -5.17574000
  O     -0.33698200      3.60212000     -6.37501000
  C      5.16173000     -2.64160000     -1.57649000
  O      5.81156000     -3.70724000     -1.85429000
  C      3.94656000      3.34894000     -3.25513000
  O      4.61483000      4.35644000     -3.68399000
  C     -0.13554100      0.66644400      5.45992000
  O     -0.31303200      1.21175000      6.57765000
  C      5.18906000     -3.46871000      0.59048200
  O      6.16720000     -4.35904000      0.48051900
  C     -5.13136000     -1.29301000      3.86108000
  O     -5.82885000     -1.79985000      4.81998000
  C     -1.14699000      4.84298000     -2.57002000
  O     -1.82066000      5.95540000     -2.71772000
  C      2.27720000     -0.28384000      6.17173000
  O      1.92859000      0.29596200      7.26917000
