#B3LYP/6-31+G(d) OPT FREQ

110, Energy =  -9986.53957268 au

0 1
 Ni      0.06951700     -3.47429000     -2.23656000
 Ni     -1.36616000     -0.22909100     -1.15839000
 Ni      0.48352700     -4.17834000      0.22578800
 Ni     -0.48891200      4.15796000     -0.21667900
 Ni     -1.13395000      2.22892000     -1.89699000
 Ni     -3.02920000      0.49520300      0.65714600
 Ni     -0.94641500     -0.86199900      1.28515000
 Ni     -0.08363140      3.46465000      2.23839000
 Ni      0.29248100     -0.96095200     -2.97387000
 Ni      3.03515000     -0.49521100     -0.65468800
 Ni      0.71357100     -1.60895000     -0.53107900
 Ni      2.40584000     -2.32094000     -2.37567000
 Ni      3.29011000      1.98081000     -1.42736000
 Ni      1.81970000     -0.41832000      3.63601000
 Ni      1.36647000      0.22758300      1.15860000
 Ni      2.63520000      0.15711600     -3.13368000
 Ni      1.17913000      3.35963000     -2.04835000
 Ni     -2.03570000     -2.07647000     -2.89065000
 Ni      3.50154000     -1.14484000      1.81312000
 Ni     -1.59104000     -2.70124000     -0.40797600
 Ni      3.71555000      1.33546000      1.05252000
 Ni      0.94625300      0.86080100     -1.28404000
 Ni     -1.81470000      0.40414200     -3.63506000
 Ni     -3.71209000     -1.33980000     -1.05374000
 Ni      2.03459000      2.06443000      2.88104000
 Ni     -0.29627000      0.96157100      2.98108000
 Ni      2.81644000     -2.99546000      0.09920760
 Ni     -1.17839000     -3.38038000      2.05379000
 Ni     -2.81524000      2.98893000     -0.08466580
 Ni      1.58452000      2.68559000      0.40728400
 Ni     -2.40148000      2.32610000      2.39044000
 Ni     -2.64781000     -0.15953900      3.14085000
 Ni      0.52669100      1.51815000     -3.75545000
 Ni     -0.71403000      1.60796000      0.53211500
 Ni     -3.29473000     -1.99030000      1.42610000
 Ni     -0.52719600     -1.52591000      3.76431000
 Ni     -3.48960000      1.13511000     -1.80106000
 Ni      1.14165000     -2.24493000      1.91280000
  C     -3.50085000      3.00961000      4.68173000
  O     -3.60799000      3.39574000      5.90798000
  C     -0.46993300      1.06565000      5.58066000
  O     -0.56357700      1.39581000      6.82075000
  C     -3.13725000      5.46779000      0.68393200
  O     -3.67208000      6.57546000      1.07752000
  C      1.52830000     -4.55721000      3.16072000
  O      2.02054000     -5.45630000      4.00457000
  C     -2.90120000     -5.23718000      2.42124000
  O     -3.66724000     -6.37155000      2.31428000
  C     -2.09099000     -2.21958000     -5.45599000
  O     -1.94629000     -2.60252000     -6.67324000
  C     -1.47596000     -6.00073000      1.17505000
  O     -2.19404000     -7.15211000      1.03650000
  C     -5.43466000      2.29614000      0.23661200
  O     -6.68154000      2.52047000      0.49927900
  C     -3.37618000     -4.69255000      0.34334700
  O     -4.10846000     -5.82020000      0.20900800
  C     -5.20332000      0.20903600      2.93744000
  O     -6.40859000      0.47078800      3.25610000
  C     -2.14376000     -5.22074000     -1.12480000
  O     -2.79745000     -6.39652000     -1.35820000
  C     -1.94954000     -4.43192000      4.28033000
  O     -2.62801000     -5.02439000      5.19037000
  C      4.13287000      3.27363000     -3.45043000
  O      4.81910000      3.88594000     -4.35461000
  C      0.59380100     -3.58786000      4.79868000
  O      1.00350000     -4.47665000      5.63659000
  C      2.98560000     -4.91559000      1.83034000
  O      3.53733000     -5.85529000      2.59802000
  C     -0.22417800     -6.72309000     -0.18511000
  O     -0.86703900     -7.84912000     -0.34720000
  C      5.31094000     -2.22793000     -0.88283700
  O      6.55576000     -2.46084000     -1.15992000
  C     -1.10795000      2.86480000      4.95041000
  O     -1.24671000      3.31128000      6.15231000
  C     -3.37161000     -2.24704000      4.69849000
  O     -4.04476000     -2.85765000      5.61804000
  C     -3.95552000     -2.15614000     -4.48556000
  O     -4.94826000     -2.33141000     -5.27918000
  C     -0.32136000     -5.41892000      3.20342000
  O      0.09916160     -6.40318000      4.04784000
  C     -0.82764000      6.49528000      0.88080100
  O     -1.35938000      7.60292000      1.27601000
  C      4.33142000     -2.84140000      3.37420000
  O      4.91296000     -3.75650000      4.21186000
  C     -2.40950000     -4.71515000     -3.24855000
  O     -3.08058000     -5.80168000     -3.47392000
  C     -1.70479000      5.32647000      3.00070000
  O     -2.21611000      6.44370000      3.39607000
  C     -5.67244000     -1.43169000      1.96850000
  O     -6.90586000     -1.33274000      2.18236000
  C     -5.08694000     -3.82317000      1.47705000
  O     -5.76483000     -4.91600000      1.34562000
  C      4.77916000     -3.97590000      1.73784000
  O      5.38798000     -4.94415000      2.52060000
  C      2.53055000     -3.09298000      4.17896000
  O      3.03028000     -3.97909000      5.04244000
  C      5.87997000     -0.90942500      0.78019100
  O      7.13481000     -1.10059000      0.53955200
  C     -0.28796800     -6.19800000     -2.08282000
  O     -0.96600100     -7.29719000     -2.36876000
  C      1.60276000     -6.24371000     -0.68756200
  O      2.08474000     -7.35009000     -1.06697000
  C      0.02932530     -2.97178000     -5.01781000
  O      0.16010200     -3.36430000     -6.24437000
  C      4.87544000     -0.38737100      3.90701000
  O      5.85943000     -0.23360300      4.72763000
  C      5.56124000      0.42720700     -1.67139000
  O      6.81271000      0.23846700     -1.93978000
  C      1.26110000     -5.94066000      1.75179000
  O      1.72328000     -6.95137000      2.51375000

