#B3LYP/6-31+G(d) OPT FREQ

110, Energy = -12200.24031339 au

0 1
 Ni      0.09665950     -3.96721000     -2.13992000
 Ni     -1.33960000     -0.28058500     -1.15783000
 Ni      0.44730000     -4.40583000      0.21877200
 Ni     -0.52759500      4.55411000     -0.15688500
 Ni     -1.15334000      2.61374000     -2.02217000
 Ni     -3.14373000      0.56156500      0.77874300
 Ni     -0.99241500     -0.97442900      1.34594000
 Ni     -0.23526900      3.86436000      2.19273000
 Ni      0.28062000     -1.13751000     -3.12793000
 Ni      3.29104000     -0.51468300     -0.65178700
 Ni      0.74169200     -1.71816000     -0.54882400
 Ni      2.68135000     -2.63353000     -2.31555000
 Ni      3.30792000      2.27921000     -1.33579000
 Ni      1.78515000     -0.48325800      3.63814000
 Ni      1.40914000      0.25629100      1.14755000
 Ni      2.59251000      0.22164400     -3.10304000
 Ni      1.20121000      3.76644000     -2.27970000
 Ni     -1.96400000     -2.46098000     -3.15299000
 Ni      3.57407000     -1.09601000      1.69023000
 Ni     -1.79114000     -3.11881000     -0.41812700
 Ni      4.25088000      1.52977000      0.88788200
 Ni      0.95319900      0.95772300     -1.33535000
 Ni     -1.75589000      0.40088600     -3.60621000
 Ni     -3.64187000     -1.38084000     -1.02791000
 Ni      1.99017000      2.14437000      2.98907000
 Ni     -0.39963500      0.97255100      3.06352000
 Ni      2.86169000     -3.24988000     -0.02074150
 Ni     -1.24369000     -3.60384000      2.17802000
 Ni     -2.75351000      3.48087000     -0.10579600
 Ni      1.67630000      3.01074000      0.45024500
 Ni     -2.53619000      2.55935000      2.37089000
 Ni     -2.75721000     -0.29380100      3.61844000
 Ni      0.57988900      2.01316000     -3.99403000
 Ni     -0.72793600      1.72311000      0.52870200
 Ni     -3.41300000     -2.25670000      1.58705000
 Ni     -0.49993800     -1.56124000      3.93125000
 Ni     -3.43111000      1.21006000     -1.74941000
 Ni      1.23446000     -2.45705000      1.97941000
  C      5.89729000      0.87027700      0.26518800
  O      7.04584000      1.43097000      0.11028700
  C     -2.50530000      5.15924000      2.56245000
  O     -2.20682000      5.93026000      3.55349000
  C     -3.03209000     -5.13257000      1.63981000
  O     -3.19546000     -6.38562000      1.86445000
  C      2.42637000      3.18857000     -4.25593000
  O      2.94954000      3.86361000     -5.23582000
  C     -4.53088000      0.04660180      5.51962000
  O     -5.30712000      0.26707600      6.50951000
  C     -5.44313000     -3.47805000      1.35240000
  O     -5.72183000     -4.72612000      1.19414000
  C     -3.78842000     -1.09527000      5.21105000
  O     -3.72133000     -2.15468000      5.94994000
  C     -2.68439000      4.49660000     -1.87363000
  O     -3.37940000      5.36753000     -2.59766000
  C      2.71212000     -4.93893000     -1.86115000
  O      3.68860000     -5.73449000     -2.14310000
  C     -0.46550200     -2.23111000     -5.12987000
  O      0.30914700     -2.42048000     -6.14358000
  C      1.34536000     -5.52203000     -2.18067000
  O      1.26135000     -6.69653000     -2.70294000
  C     -3.75064000      4.28958000      2.63439000
  O     -4.74292000      5.07034000      2.83262000
  C      1.23037000     -4.72051000      3.44325000
  O      0.89161300     -5.45673000      4.44212000
  C      0.50002000     -5.67356000      2.06036000
  O      0.89519600     -6.91022000      2.40056000
  C     -5.36656000      0.38907200      1.49427000
  O     -6.50489000      0.99192400      1.44891000
  C     -3.20526000     -4.42427000      0.25898900
  O     -3.91640000     -5.16650000     -0.52116700
  C     -1.54034000      0.11349700      5.41457000
  O     -1.92242000      0.39459800      6.63549000
  C      1.49334000      2.17876000      5.27149000
  O      1.62323000      2.96326000      6.28172000
  C     -1.47772000     -5.35931000     -1.50489000
  O     -1.65561000     -6.60205000     -1.21484000
  C     -1.79938000     -2.76257000     -5.19234000
  O     -2.45065000     -3.29389000     -6.16472000
  C      0.48148700      6.19538000      1.44833000
  O      0.99362700      7.25658000      0.93884100
  C      1.27215000      5.93102000     -1.66538000
  O      2.14220000      6.86390000     -1.59805000
  C      5.52342000     -0.54842400     -0.01541150
  O      6.50697000     -1.33864000     -0.29181600
  C      2.68588000      4.77080000      0.36841000
  O      2.95602000      5.93964000      0.82104100
  C      4.68153000      3.36642000      0.86065500
  O      5.51473000      4.15022000      1.44344000
  C     -3.87153000     -3.18486000      3.36051000
  O     -4.78328000     -3.29954000      4.25625000
  C     -2.28088000      5.38599000      0.98256000
  O     -2.89971000      6.51087000      0.87680000
  C     -3.17894000     -4.52308000      3.19520000
  O     -3.12798000     -5.42442000      4.11218000
  C      4.70835000     -2.78862000     -1.88822000
  O      5.83588000     -3.05677000     -2.46016000
  C     -0.33302400      3.51546000     -4.71459000
  O     -0.51700800      3.92502000     -5.92039000
  C     -0.64152400      4.39960000     -3.50877000
  O     -1.17368000      5.55945000     -3.70856000
  C      4.04124000      4.34091000     -0.20496800
  O      4.69706000      5.11718000     -1.01220000
  C      0.03479790      6.13371000      2.79477000
  O     -0.12472600      7.05143000      3.66798000
  C      1.26307000     -3.05725000      4.44158000
  O      1.97612000     -3.49730000      5.49470000
  C      2.44558000     -4.36576000      2.59576000
  O      3.42031000     -5.12360000      2.92684000
  C     -2.36480000     -4.59519000     -2.51852000
  O     -3.27844000     -5.30093000     -3.08603000

