#B3LYP/6-31+G(d) OPT FREQ

110, Energy = -11459.36787507 au

0 1
 Ni      0.07164520     -3.45762000     -2.23219000
 Ni     -1.40068000     -0.23073200     -1.17447000
 Ni      0.37152400     -4.24776000      0.19810700
 Ni     -0.47193800      4.16652000     -0.17840100
 Ni     -1.20198000      2.26139000     -1.96716000
 Ni     -3.11913000      0.47241400      0.65322400
 Ni     -0.96790400     -0.88875500      1.30133000
 Ni     -0.06253990      3.70032000      2.24958000
 Ni      0.28667600     -0.94609800     -3.04402000
 Ni      3.19771000     -0.50675600     -0.69122700
 Ni      0.71719200     -1.61542000     -0.53670700
 Ni      2.53275000     -2.32202000     -2.40196000
 Ni      3.37285000      2.00485000     -1.44513000
 Ni      1.97282000     -0.39429800      3.67876000
 Ni      1.39666000      0.22252900      1.17176000
 Ni      2.70404000      0.10991200     -3.11354000
 Ni      1.23483000      3.37025000     -2.10112000
 Ni     -2.13675000     -2.03056000     -2.90731000
 Ni      3.72370000     -1.06592000      1.82706000
 Ni     -1.70785000     -2.84868000     -0.39863700
 Ni      3.88872000      1.29318000      1.03552000
 Ni      0.96038000      0.86795200     -1.29240000
 Ni     -1.95022000      0.51289000     -3.71080000
 Ni     -3.86904000     -1.44626000     -1.12043000
 Ni      2.04478000      2.14372000      2.85163000
 Ni     -0.33943300      0.96339500      3.09916000
 Ni      2.83523000     -2.98912000      0.06046080
 Ni     -1.31322000     -3.49345000      2.06674000
 Ni     -2.84625000      3.08042000     -0.15729700
 Ni      1.60662000      2.72000000      0.43749500
 Ni     -2.37864000      2.34695000      2.38942000
 Ni     -2.60757000     -0.19048100      3.20714000
 Ni      0.52390800      1.51516000     -3.81054000
 Ni     -0.72115800      1.62107000      0.54353600
 Ni     -3.44532000     -2.14738000      1.43512000
 Ni     -0.61033200     -1.47516000      3.90592000
 Ni     -3.67626000      1.17288000     -2.00227000
 Ni      1.15197000     -2.28332000      1.95914000
  C     -3.28898000      3.44131000     -3.38510000
  O     -4.16423000      4.18050000     -4.06795000
  C     -5.51077000     -0.37994200      1.36496000
  O     -6.75190000     -0.15582400      1.63669000
  C     -5.81700000      1.35479000     -1.03955000
  O     -7.07191000      1.71272000     -0.90344500
  C     -0.97472500     -6.03559000     -0.74224000
  O     -1.09773000     -7.31790000     -0.91432000
  C     -3.20429000     -4.89412000      1.21703000
  O     -3.66532000     -6.07211000      1.37417000
  C      1.28008000      5.65506000      1.69001000
  O      1.45222000      6.94841000      1.61516000
  C     -2.22060000     -5.29524000     -0.56678600
  O     -3.21944000     -6.00951000     -1.01153000
  C      2.31199000      4.89892000      2.32191000
  O      3.34732000      5.57800000      2.73583000
  C     -4.58106000     -4.15831000      0.97753400
  O     -5.64707000     -4.72998000      1.38121000
  C     -4.66882000     -0.99833800     -3.91537000
  O     -5.29421000     -1.38746000     -5.01326000
  C     -3.41877000      4.51064000     -2.00045000
  O     -3.94826000      5.63632000     -2.25401000
  C     -4.90066000      0.49060400     -3.81960000
  O     -5.88733000      0.96895400     -4.49830000
  C     -2.41231000      5.40344000      1.94475000
  O     -3.29894000      6.32867000      1.85683000
  C      5.02757000     -1.18533000     -2.77745000
  O      6.04756000     -1.55644000     -3.45371000
  C     -1.42694000      5.45538000      2.93389000
  O     -1.45413000      6.49758000      3.69921000
  C      5.42874000     -0.66343300     -1.44455000
  O      6.69385000     -0.65770700     -1.31637000
  C     -1.43569000      1.33886000      5.36277000
  O     -1.71025000      2.21523000      6.28267000
  C      3.33479000      3.89655000     -3.49612000
  O      3.94364000      4.55128000     -4.42502000
  C     -2.79715000     -2.52149000      4.92738000
  O     -3.14838000     -2.81034000      6.09076000
  C     -3.48549000     -3.30410000      3.92850000
  O     -4.34024000     -4.13127000      4.34970000
  C      1.20272000     -4.38239000      3.42283000
  O      1.77058000     -5.22014000      4.22174000
  C      4.19823000     -0.18353400      4.61314000
  O      4.70605000     -0.17347300      5.79750000
  C     -4.95843000     -2.55308000     -3.15723000
  O     -6.01465000     -3.17890000     -3.68599000
  C      5.94701000      1.59335000     -0.49242200
  O      7.03469000      1.77582000     -1.15346000
  C     -4.50539000     -3.79423000     -0.53625300
  O     -5.07303000     -4.75907000     -1.11279000
  C     -6.23973000     -0.42805600     -2.03833000
  O     -7.09907000     -0.74793700     -2.94859000
  C      5.05864000      0.17498800      3.56756000
  O      6.28751000      0.51265900      3.86102000
  C     -1.03984000      0.05076530      5.79683000
  O     -0.98470200     -0.14185700      7.07091000
  C      5.81161000     -1.07820000      0.93047400
  O      6.81510000     -1.86764000      0.77783100
  C      0.43175600      0.38352200     -5.99266000
  O      0.65556700      0.15355000     -7.24049000
  C     -3.30005000      0.25026500     -5.71636000
  O     -4.37237000      0.10359900     -6.41574000
  C     -1.35779000     -6.14452000      1.99419000
  O     -1.89581000     -7.31392000      1.91999000
  C      4.74498000     -3.72781000     -2.11757000
  O      5.98674000     -3.87734000     -2.43040000
  C      6.13459000      0.39078800      0.70832000
  O      7.40045000      0.57938000      0.98082400
  C      0.67803100     -2.17117000     -5.17246000
  O      0.73689800     -2.38903000     -6.44109000
  C     -2.47768000      2.76366000     -4.51810000
  O     -2.61719000      3.27728000     -5.68895000

