#B3LYP/6-31+G(d) OPT FREQ

110, Energy = -12346.15247029 au

0 1
 Ni     -0.05976810     -3.97582000     -2.30282000
 Ni     -1.36114000     -0.21299000     -1.19631000
 Ni      0.40877000     -4.52818000      0.18471900
 Ni     -0.55092600      4.36143000     -0.43440300
 Ni     -1.14439000      2.44660000     -2.10602000
 Ni     -2.99285000      0.52632700      0.66447100
 Ni     -0.92969200     -0.98298700      1.36500000
 Ni     -0.10373600      3.46054000      2.55612000
 Ni      0.24418100     -1.03811000     -3.03637000
 Ni      3.34905000     -0.66040100     -0.67530600
 Ni      0.75872800     -1.71211000     -0.51427300
 Ni      2.67240000     -2.30684000     -2.35704000
 Ni      3.53952000      2.43119000     -1.50451000
 Ni      1.99652000     -0.61826700      3.91805000
 Ni      1.41413000      0.22411500      1.25800000
 Ni      2.67086000      0.45908400     -3.26725000
 Ni      1.31624000      3.86577000     -2.03034000
 Ni     -2.21227000     -2.34059000     -3.34151000
 Ni      3.86456000     -1.11854000      1.96692000
 Ni     -1.63787000     -3.01434000     -0.46716800
 Ni      3.77326000      1.29502000      1.19724000
 Ni      1.00803000      0.99560700     -1.32263000
 Ni     -1.95065000      0.28809000     -3.75686000
 Ni     -3.65104000     -1.31287000     -1.09684000
 Ni      2.04751000      2.11707000      3.38929000
 Ni     -0.21589500      0.92857700      3.30579000
 Ni      2.98874000     -3.28730000     -0.18644800
 Ni     -1.19914000     -3.69136000      2.42030000
 Ni     -2.84114000      3.13707000     -0.26682000
 Ni      1.70112000      2.94619000      0.46904600
 Ni     -2.42527000      2.36565000      2.68444000
 Ni     -2.63299000     -0.20308200      3.10987000
 Ni      0.71062400      1.92543000     -4.09140000
 Ni     -0.69915700      1.69679000      0.58241500
 Ni     -3.28322000     -2.40653000      1.37559000
 Ni     -0.66771600     -1.54453000      4.24565000
 Ni     -3.48667000      1.35234000     -1.90104000
 Ni      1.21146000     -2.45009000      2.07142000
  C      4.57069000     -2.19546000     -1.47485000
  O      5.81018000     -2.35049000     -1.77927000
  C     -1.34098000      3.70199000      4.50602000
  O     -0.98225100      4.45813000      5.48907000
  C      4.77816000      0.21818900      3.36271000
  O      5.84802000      0.16528600      4.09250000
  C      2.47853000     -2.44252000      4.54339000
  O      3.20221000     -2.62129000      5.59130000
  C      1.58547000     -6.11858000     -1.01095000
  O      1.61899000     -7.34965000     -0.58259800
  C     -1.41055000     -5.65129000      0.55593400
  O     -1.67930000     -6.84222000      0.15244400
  C     -3.69246000     -4.28909000      1.15242000
  O     -4.81607000     -4.86239000      0.90250600
  C     -3.89176000     -2.36494000     -4.38814000
  O     -4.71822000     -3.27913000     -4.76510000
  C     -1.03376000      2.51891000     -5.56119000
  O     -1.90157000      2.94295000     -6.39871000
  C      1.55619000      3.85196000      4.62202000
  O      1.63113000      4.09985000      5.87521000
  C     -1.63044000      5.25734000     -1.83787000
  O     -1.77614000      6.48053000     -2.21168000
  C     -2.63258000     -5.37340000      1.51740000
  O     -3.01654000     -6.37997000      2.23225000
  C      0.78455700      5.42913000     -3.19461000
  O      0.67239700      6.71286000     -3.14238000
  C     -1.88367000     -4.68003000     -2.03797000
  O     -2.47305000     -5.89841000     -2.19639000
  C      4.44067000      2.87763000     -3.32785000
  O      5.18573000      3.78886000     -3.81199000
  C      2.83136000     -5.18106000     -0.86476000
  O      3.73842000     -5.93712000     -1.36778000
  C     -1.06888000     -2.57590000     -4.97648000
  O     -1.37183000     -2.98081000     -6.16390000
  C      2.49567000      2.02063000     -4.87185000
  O      3.16436000      2.68447000     -5.81509000
  C      0.78581600     -5.71625000     -2.26942000
  O      0.92315700     -6.70925000     -3.07021000
  C      4.32176000      3.87095000     -0.56407900
  O      5.29246000      4.66405000     -0.85034900
  C     -0.32571800     -0.04928210      5.71553000
  O     -0.55657200     -0.24586900      6.97101000
  C      0.09980350      3.49201000     -5.35901000
  O      0.75886100      4.07623000     -6.31424000
  C      2.75926000      1.40359000      5.48484000
  O      2.62229000      1.84231000      6.67235000
  C     -2.39017000      4.46034000     -2.88026000
  O     -2.60688000      4.75570000     -4.11787000
  C      2.13220000      5.14199000     -0.72217100
  O      2.45775000      6.37990000     -0.86458400
  C      5.60956000     -1.13838000      0.76651800
  O      6.82935000     -1.50908000      0.88454200
  C     -2.58330000      2.98408000      4.65509000
  O     -3.37391000      2.89031000      5.66345000
  C      0.05731030      4.85560000     -4.30163000
  O     -0.71202100      5.53989000     -5.05006000
  C     -3.61430000      3.58362000     -2.30481000
  O     -4.60969000      4.19237000     -2.84751000
  C      2.10357000     -3.72817000      3.80109000
  O      2.95824000     -4.69503000      3.83474000
  C      3.32633000      4.69706000      0.26095800
  O      3.72665000      5.39124000      1.27436000
  C     -1.88039000     -2.62561000      5.34695000
  O     -2.29011000     -2.49988000      6.56267000
  C      0.02046170      1.35069000      5.36206000
  O      0.14282200      2.27719000      6.24199000
  C     -3.75353000     -0.97384500     -4.73130000
  O     -4.53139000     -0.51097100     -5.64856000
  C     -2.17302000     -3.65957000      4.36844000
  O     -2.94203000     -4.61315000      4.78191000
  C      0.61504600     -4.38775000      3.42111000
  O      0.68819100     -5.52797000      4.00539000

