#B3LYP/6-31+G(d) OPT FREQ

110, Energy = -12072.07924739 au

0 1
 Ni      0.18641200     -3.67382000     -2.51248000
 Ni     -1.35168000     -0.24213400     -1.23692000
 Ni      0.52302900     -4.66141000      0.33714700
 Ni     -0.42331900      4.29562000     -0.18080100
 Ni     -1.20611000      2.35957000     -2.13697000
 Ni     -3.25158000      0.53333600      0.74360900
 Ni     -0.99165500     -0.90177300      1.35342000
 Ni      0.02612340      3.67803000      2.30077000
 Ni      0.31974600     -1.10691000     -3.28952000
 Ni      3.04565000     -0.56837800     -0.62532000
 Ni      0.75118400     -1.70701000     -0.56450200
 Ni      2.46569000     -2.62507000     -2.39124000
 Ni      3.27356000      2.13816000     -1.30041000
 Ni      1.93529000     -0.25545000      3.96939000
 Ni      1.41732000      0.25575400      1.22007000
 Ni      2.52752000      0.14137400     -3.19027000
 Ni      1.09716000      3.58975000     -2.16715000
 Ni     -2.06349000     -2.13644000     -3.23326000
 Ni      3.76936000     -1.04534000      1.96752000
 Ni     -1.54059000     -2.86627000     -0.37731500
 Ni      3.75888000      1.44779000      1.18014000
 Ni      0.93048700      0.92931300     -1.33994000
 Ni     -1.81882000      0.38686900     -4.00959000
 Ni     -3.65366000     -1.37264000     -1.06515000
 Ni      2.34675000      2.39199000      3.01828000
 Ni     -0.25586100      0.91191900      3.07947000
 Ni      3.09814000     -3.33656000      0.05338500
 Ni     -1.27282000     -3.57304000      2.23906000
 Ni     -2.84833000      3.17770000      0.01162180
 Ni      1.76708000      3.09707000      0.46754200
 Ni     -2.35573000      2.38632000      2.37750000
 Ni     -2.78584000     -0.24472000      3.32248000
 Ni      0.45566300      1.49019000     -4.10391000
 Ni     -0.70896100      1.66693000      0.50876400
 Ni     -3.43201000     -1.91492000      1.58372000
 Ni     -0.49479100     -1.73321000      4.18407000
 Ni     -3.43808000      1.14478000     -1.82558000
 Ni      1.17910000     -2.49128000      2.08088000
  C      3.41737000      0.19634500      5.18310000
  O      3.74474000      0.28347500      6.41976000
  C     -4.20518000     -1.08610000      4.76900000
  O     -4.45723000     -0.88994400      6.02038000
  C     -1.93427000      3.51647000     -4.02684000
  O     -3.00145000      4.21029000     -4.19185000
  C     -5.37855000      1.37631000      1.02373000
  O     -6.31237000      2.26027000      1.03473000
  C      4.21231000      2.22986000      3.87886000
  O      4.93368000      2.99245000      4.55029000
  C      3.74459000      3.93325000      0.20543100
  O      4.43720000      5.04997000      0.30141100
  C      5.09017000     -0.34266200      3.15336000
  O      6.32305000     -0.63801200      3.36694000
  C      0.11088600     -0.25038600      5.66977000
  O     -0.10072800     -0.00390104      6.94013000
  C     -5.55252000      0.01022730      1.25667000
  O     -6.66858000     -0.58909100      1.48859000
  C     -1.06482000      2.86149000     -5.22960000
  O     -1.29898000      3.02510000     -6.48570000
  C      3.19348000     -5.30051000     -0.57525200
  O      3.88534000     -6.28294000     -0.08010900
  C     -2.51009000     -4.04614000      3.89200000
  O     -3.07523000     -5.17278000      4.12486000
  C      1.24524000     -0.11102100     -5.55323000
  O      1.53172000      0.16297600     -6.78863000
  C      0.93990400     -1.54893000     -5.38049000
  O      0.92883000     -2.39155000     -6.34311000
  C     -0.38689000      4.02616000     -4.24877000
  O     -0.13116500      5.17452000     -4.76054000
  C      1.94226000     -5.98951000     -1.85291000
  O      2.33576000     -7.18468000     -2.20231000
  C     -1.56082000     -1.75381000     -5.71167000
  O     -2.14607000     -2.27710000     -6.73713000
  C      1.30128000     -5.13879000     -3.05694000
  O      1.54993000     -5.87860000     -4.07523000
  C     -3.88747000     -1.33965000     -4.45111000
  O     -4.72432000     -1.75438000     -5.30752000
  C     -1.56740000     -5.41940000      0.34192900
  O     -2.11422000     -6.60299000      0.13177300
  C     -0.93954100     -3.04349000     -4.79606000
  O     -0.75222400     -3.99352000     -5.63987000
  C     -5.09200000     -0.98450900      3.55367000
  O     -6.35029000     -0.98751300      3.77750000
  C     -2.71303000      5.11929000      1.29487000
  O     -3.39132000      6.15993000      1.55449000
  C      2.77998000      4.30133000      2.86419000
  O      3.52156000      5.10441000      3.55904000
  C      1.60481000      5.49831000     -0.94699400
  O      2.22993000      6.61038000     -1.00665000
  C      3.38292000     -4.68558000     -2.03107000
  O      4.23606000     -5.21407000     -2.87668000
  C     -2.12763000     -3.03696000      5.05663000
  O     -2.05393000     -3.26805000      6.32862000
  C      1.02024000     -6.41189000     -0.34290500
  O      1.21726000     -7.66869000     -0.14141100
  C      4.66418000      0.67389800      4.35122000
  O      5.76323000      0.79542000      5.11885000
  C      0.68979300     -3.51395000      4.18543000
  O      1.17939000     -4.38533000      5.06600000
  C      1.63227000     -4.92077000      2.16391000
  O      2.06403000     -5.91182000      2.90527000
  C      5.20660000     -2.78432000      0.04662780
  O      6.28870000     -3.28941000     -0.38864900
  C     -1.33180000     -0.25123000     -5.85747000
  O     -1.07157000      0.22380900     -7.02246000
  C      2.11404000      5.34514000      1.88248000
  O      2.71111000      6.27681000      1.28226000
  C     -3.66986000     -2.65972000      4.60429000
  O     -4.76899000     -3.27431000      4.81681000
  C      0.71347400      5.64504000      2.42983000
  O      0.88793300      6.73513000      3.07503000

