110
Energy = -11483.66993427 au
 Ni      0.09879400     -3.47296000     -2.42787000
 Ni     -1.39431000     -0.22586200     -1.18146000
 Ni      0.56271400     -4.20319000      0.23176200
 Ni     -0.41137400      4.30518000     -0.28529700
 Ni     -1.17329000      2.34309000     -2.00483000
 Ni     -3.15899000      0.52330700      0.71079400
 Ni     -0.97045500     -0.87632400      1.28620000
 Ni     -0.08422460      3.45525000      2.38066000
 Ni      0.26765200     -0.99280000     -3.04762000
 Ni      3.05132000     -0.49154100     -0.67680400
 Ni      0.72391200     -1.63061000     -0.55230300
 Ni      2.43697000     -2.40766000     -2.53786000
 Ni      3.42982000      2.19514000     -1.50424000
 Ni      1.84533000     -0.39729700      3.66709000
 Ni      1.38175000      0.25154000      1.17049000
 Ni      2.66860000      0.17803900     -3.20745000
 Ni      1.32141000      3.51642000     -2.06717000
 Ni     -2.09277000     -2.03972000     -3.09839000
 Ni      3.51420000     -1.15657000      1.80787000
 Ni     -1.64112000     -2.78977000     -0.41213400
 Ni      3.76165000      1.44441000      1.05738000
 Ni      0.96354800      0.89646200     -1.29512000
 Ni     -1.83301000      0.32288400     -3.82746000
 Ni     -3.80148000     -1.34599000     -1.11993000
 Ni      2.10839000      2.27382000      2.90672000
 Ni     -0.29623600      0.98046000      2.98544000
 Ni      2.86283000     -3.15268000      0.09063320
 Ni     -1.29661000     -3.46069000      2.12009000
 Ni     -2.81158000      2.98013000     -0.07817700
 Ni      1.70394000      2.91126000      0.45242300
 Ni     -2.44386000      2.33948000      2.45056000
 Ni     -2.75366000     -0.19789500      3.15235000
 Ni      0.60131700      1.54834000     -3.77906000
 Ni     -0.71041800      1.63541000      0.52836300
 Ni     -3.43726000     -1.96556000      1.49224000
 Ni     -0.53531300     -1.51768000      3.74040000
 Ni     -3.51329000      1.27637000     -1.93724000
 Ni      1.14713000     -2.27749000      1.89722000
  C      5.54404000      1.00314000     -1.92542000
  O      6.80509000      1.01768000     -2.19374000
  C      2.65917000     -5.48304000     -0.98020100
  O      3.24452000     -6.57916000     -1.32407000
  C     -1.29515000     -0.55245200     -5.86858000
  O     -1.34114000     -0.28919800     -7.12605000
  C      1.54743000     -3.42729000     -4.73011000
  O      1.80543000     -4.25258000     -5.71454000
  C      1.01297000      6.05795000      0.10755500
  O      1.85985000      7.09864000      0.12656400
  C     -5.73981000     -1.28068000      1.17482000
  O     -7.00312000     -1.50665000      1.09480000
  C     -3.79210000      3.06823000     -3.37726000
  O     -4.79021000      3.65714000     -3.93513000
  C     -0.18793400     -3.84161000     -4.70559000
  O     -0.49705300     -4.62944000     -5.67592000
  C     -5.45289000     -0.01840450      2.12911000
  O     -6.41018000     -0.04004400      2.98990000
  C     -1.49346000      4.80607000     -2.79968000
  O     -1.69758000      5.99762000     -3.24299000
  C     -2.67863000     -5.06722000      0.21539900
  O     -3.26290000     -6.00334000     -0.50458400
  C      5.21994000     -3.15527000     -0.46090400
  O      6.42292000     -3.56223000     -0.67530800
  C      2.65387000     -2.40599000     -4.91712000
  O      3.23698000     -2.36595000     -6.07211000
  C      3.04288000      2.44761000     -4.76652000
  O      3.47254000      2.61673000     -5.96415000
  C      3.88196000      0.18148100      4.91490000
  O      4.75325000      0.22367000      5.86252000
  C      3.46223000      3.43433000     -3.80720000
  O      4.25795000      4.34317000     -4.24392000
  C     -2.87385000     -5.13926000      1.98338000
  O     -3.39733000     -6.34542000      1.98169000
  C      3.02143000      5.10681000     -1.34786000
  O      3.49547000      6.27007000     -0.84505700
  C     -1.09123000     -1.92629000     -5.39815000
  O     -1.01712000     -2.60031000     -6.50717000
  C      4.83936000     -2.39381000     -2.95938000
  O      6.03158000     -2.80893000     -3.21371000
  C     -4.74335000     -1.66199000     -3.60321000
  O     -5.96640000     -1.91603000     -3.89878000
  C     -2.79827000     -4.58518000      3.34208000
  O     -3.25899000     -4.87846000      4.49914000
  C      2.56644000      5.53001000     -2.71864000
  O      3.05566000      6.63848000     -3.12127000
  C      4.28066000      4.25863000     -1.24209000
  O      5.39038000      4.88597000     -1.25321000
  C      2.70051000      4.87795000      1.49307000
  O      3.32921000      5.94998000      1.26405000
  C     -3.90201000     -1.33865000     -4.70031000
  O     -4.41131000     -1.34769000     -5.87890000
  C     -2.46788000      3.74241000     -3.62341000
  O     -2.47378000      4.29019000     -4.80608000
  C      5.88757000     -1.33871000      1.18824000
  O      7.12045000     -1.68264000      1.04982000
  C     -0.10152100      6.81054000      0.49253600
  O     -0.12775700      8.05158000      0.81270900
  C     -1.27557000      3.43820000      4.72868000
  O     -2.00623000      3.70669000      5.76545000
  C     -4.05418000     -2.17654000      4.13087000
  O     -4.73383000     -2.73300000      5.07448000
  C      3.08387000      4.30223000      2.73367000
  O      3.85616000      5.03538000      3.47264000
  C     -5.18062000      1.45113000      1.79667000
  O     -6.24680000      2.15835000      1.81855000
  C      2.41425000     -4.97210000      1.98558000
  O      2.91579000     -5.90676000      2.71963000
  C      4.73922000      3.64591000      0.87241100
  O      5.38882000      4.57182000      1.19192000
  C      0.12022700      3.59186000      4.82356000
  O      0.63346200      4.00980000      5.93637000
