#B3LYP/6-31+G(d) OPT FREQ

110, Energy = -10091.77394416 au

0 1
 Ni      0.07663350     -3.46886000     -2.23134000
 Ni     -1.36661000     -0.22919900     -1.15821000
 Ni      0.47837700     -4.18022000      0.23079300
 Ni     -0.48177000      4.16686000     -0.21371500
 Ni     -1.13320000      2.23226000     -1.89927000
 Ni     -3.03648000      0.49949500      0.65508000
 Ni     -0.94634500     -0.86150800      1.28410000
 Ni     -0.07642080      3.48210000      2.23537000
 Ni      0.29224000     -0.95692000     -2.96937000
 Ni      3.03179000     -0.49282500     -0.65445800
 Ni      0.71379200     -1.60913000     -0.53113500
 Ni      2.40775000     -2.33031000     -2.37459000
 Ni      3.29888000      1.99021000     -1.42479000
 Ni      1.82176000     -0.40109500      3.63561000
 Ni      1.36766000      0.22866700      1.15919000
 Ni      2.63264000      0.15648500     -3.13447000
 Ni      1.18400000      3.37152000     -2.04695000
 Ni     -2.04173000     -2.07116000     -2.88911000
 Ni      3.50811000     -1.14331000      1.82326000
 Ni     -1.59779000     -2.70791000     -0.40602500
 Ni      3.73377000      1.35080000      1.05863000
 Ni      0.94663400      0.86179000     -1.28417000
 Ni     -1.81504000      0.40591600     -3.63343000
 Ni     -3.71377000     -1.35151000     -1.05572000
 Ni      2.05351000      2.08145000      2.89030000
 Ni     -0.29365000      0.95942000      2.97684000
 Ni      2.81596000     -3.00012000      0.09549900
 Ni     -1.18443000     -3.36860000      2.04405000
 Ni     -2.83315000      3.00154000     -0.07597410
 Ni      1.59611000      2.70169000      0.41251700
 Ni     -2.42535000      2.33755000      2.37779000
 Ni     -2.63471000     -0.16063100      3.13530000
 Ni      0.52333500      1.52542000     -3.75984000
 Ni     -0.71406700      1.60891000      0.53224000
 Ni     -3.29011000     -2.00286000      1.43063000
 Ni     -0.52704100     -1.51861000      3.75504000
 Ni     -3.49092000      1.13610000     -1.79879000
 Ni      1.14541000     -2.24909000      1.90879000
  C     -0.36187800      3.85858000     -4.62052000
  O     -0.81378300      4.75411000     -5.43432000
  C     -1.45073000     -2.75229000     -5.23632000
  O     -1.35514000     -3.14025000     -6.46067000
  C     -5.37951000      3.26628000     -0.23099500
  O     -6.59319000      3.56484000     -0.00243292
  C      0.29133600      1.65176000      5.46392000
  O      0.16184100      2.03667000      6.68978000
  C     -4.14329000     -3.98397000     -0.94308100
  O     -4.89723000     -5.15891000     -1.21586000
  C      2.38267000      4.83193000      2.70995000
  O      2.95250000      5.95852000      2.97009000
  C      3.52797000      4.78861000     -1.55730000
  O      4.25117000      5.85122000     -1.47309000
  C      0.62551100     -6.39204000      1.56784000
  O      0.98551500     -7.43384000      2.39682000
  C      2.18212000      5.44530000     -0.20705100
  O      2.80698000      6.56182000     -0.01480150
  C     -2.80206000      4.92324000      2.57494000
  O     -3.42414000      6.02325000      3.08258000
  C      5.24551000     -0.74020800      3.52775000
  O      6.26853000     -0.70070000      4.32757000
  C      2.94646000     -5.10762000     -1.93124000
  O      3.48464000     -6.21777000     -2.31683000
  C      5.75744000      1.37757000     -1.29498000
  O      7.03402000      1.21302000     -1.70619000
  C      2.38852000     -6.17827000      0.72428700
  O      2.92842000     -7.19774000      1.47338000
  C      2.80764000     -3.67801000      3.37140000
  O      3.31120000     -4.56614000      4.26328000
  C      3.55885000     -0.24286400      5.43516000
  O      4.54186000     -0.06468430      6.24649000
  C     -3.92171000     -4.70402000      2.93763000
  O     -4.68344000     -5.92188000      2.86896000
  C     -1.64908000     -5.34114000     -2.37322000
  O     -2.30067000     -6.42416000     -2.60596000
  C     -1.12491000      5.86710000      2.23228000
  O     -1.55894000      7.00344000      2.62122000
  C      6.07189000      0.93039000      0.50412600
  O      7.40777000      0.70795700      0.35262500
  C     -4.20079000     -1.87259000     -4.25338000
  O     -5.16565000     -2.05233000     -5.08955000
  C      4.59127000     -3.37689000      2.56788000
  O      5.23765000     -4.26503000      3.37864000
  C     -3.22178000      5.41079000      0.71640200
  O     -3.77921000      6.51618000      1.00553000
  C     -1.02184000     -6.06297000     -0.43226200
  O     -1.58382000     -7.23606000     -0.60505100
  C      4.61982000      1.07862000      3.86254000
  O      5.67244000      1.30281000      4.69732000
  C     -1.64522000      5.60906000     -1.92657000
  O     -2.11454000      6.51673000     -2.71121000
  C      3.82711000      4.10512000      1.73711000
  O      4.58375000      5.14372000      1.86372000
  C      3.46553000     -4.81363000      1.63578000
  O      4.00838000     -5.73411000      2.45174000
  C     -5.44902000      1.52872000      0.64632800
  O     -6.77818000      1.59842000      0.89566900
  C     -2.57783000     -5.14123000      0.15785500
  O     -3.31896000     -6.27422000     -0.01015380
  C      5.38384000     -1.60853000     -1.01658000
  O      6.63326000     -1.79023000     -1.28667000
  C     -4.21978000     -4.28621000      0.97556700
  O     -5.00110000     -5.36679000      0.88924600
  C      3.47382000      2.21500000      5.03827000
  O      4.39146000      2.43917000      5.91791000
  C     -4.97295000      2.76024000      2.07588000
  O     -6.17745000      3.03698000      2.41088000
  C      1.46096000     -5.00345000      2.67348000
  O      1.95702000     -5.95078000      3.51780000
  C     -3.71960000     -3.05761000      3.88380000
  O     -4.42101000     -3.66229000      4.81404000

