110
Energy = -12112.70852340 au
 Ni      0.25917600     -3.59507000     -2.46378000
 Ni     -1.37765000     -0.24402800     -1.21808000
 Ni      0.70693800     -4.51488000      0.26845600
 Ni     -0.43768700      4.44024000     -0.15069900
 Ni     -1.19146000      2.35412000     -1.95453000
 Ni     -3.04586000      0.49502300      0.73004300
 Ni     -0.97038700     -0.90759700      1.35176000
 Ni     -0.20686200      3.61403000      2.42419000
 Ni      0.29583200     -1.04342000     -3.08466000
 Ni      3.41917000     -0.54446100     -0.69113900
 Ni      0.74754800     -1.69527000     -0.56262800
 Ni      2.51695000     -2.45240000     -2.74414000
 Ni      3.34199000      1.89494000     -1.42160000
 Ni      1.88915000     -0.42794800      3.59194000
 Ni      1.40352000      0.17356200      1.14470000
 Ni      2.91898000      0.08339090     -3.16721000
 Ni      1.22191000      3.49173000     -1.96205000
 Ni     -2.19263000     -2.24386000     -3.15056000
 Ni      4.02468000     -1.43319000      2.00329000
 Ni     -1.72222000     -2.93619000     -0.51526000
 Ni      3.79466000      1.17440000      1.10813000
 Ni      0.98392200      0.83763700     -1.32038000
 Ni     -1.84292000      0.24861900     -3.89245000
 Ni     -3.68440000     -1.36138000     -1.14029000
 Ni      1.99048000      2.06961000      2.85445000
 Ni     -0.42835100      0.98990300      3.19373000
 Ni      2.88961000     -3.02722000      0.21838500
 Ni     -1.16959000     -3.46507000      2.10967000
 Ni     -2.79846000      3.21264000     -0.24873800
 Ni      1.58853000      2.81234000      0.40420400
 Ni     -2.48738000      2.46447000      2.66016000
 Ni     -2.95963000     -0.15042000      3.49418000
 Ni      0.51877300      1.54763000     -3.81188000
 Ni     -0.73363200      1.66870000      0.58025500
 Ni     -3.47010000     -1.96788000      1.75872000
 Ni     -0.81259200     -1.48976000      4.02943000
 Ni     -3.52135000      1.36387000     -1.88704000
 Ni      1.26252000     -2.40682000      2.03695000
  C      2.07003000     -3.14772000     -4.60352000
  O      2.80422000     -3.34010000     -5.64853000
  C     -2.81524000      4.72471000      2.73636000
  O     -3.39274000      5.66941000      3.31432000
  C     -1.25423000     -2.00667000     -5.62750000
  O     -0.32412100     -2.14650000     -6.59391000
  C      1.53695000     -5.61020000     -2.03938000
  O      2.11538000     -6.28559000     -2.96775000
  C     -1.98642000     -3.20156000     -5.07235000
  O     -2.29201000     -3.98043000     -6.00117000
  C      5.77166000     -1.62184000      1.37400000
  O      6.85198000     -2.21245000      1.76045000
  C      4.15258000     -3.34458000      2.58547000
  O      5.13623000     -4.00937000      3.06329000
  C     -2.19755000     -2.47235000      5.15668000
  O     -2.38162000     -3.14864000      6.22368000
  C     -0.56663800      5.63011000      3.21434000
  O     -0.83625600      6.87089000      3.14263000
  C     -2.18032000      5.76890000      0.56012600
  O     -2.46069000      6.92858000      0.91113700
  C     -2.26958000      1.62654000      5.15803000
  O     -3.29827000      1.92494000      5.96317000
  C      4.80678000     -2.72592000     -2.50468000
  O      5.89523000     -2.97232000     -3.15068000
  C     -1.44257000      0.28408100      5.44096000
  O     -1.30266000      0.34172300      6.70953000
  C      5.27742000      0.12735300     -2.10864000
  O      6.57181000      0.23094200     -2.04439000
  C     -2.88400000     -4.82280000     -0.70040300
  O     -3.15323000     -6.00908000     -0.28246900
  C     -1.23580000      2.80170000      4.85382000
  O     -1.06281000      3.12541000      6.06520000
  C     -0.42198800      3.49626000     -4.88580000
  O     -0.76516400      4.11067000     -5.96616000
  C     -3.73172000     -3.47678000      3.33762000
  O     -4.24518000     -4.53599000      3.84640000
  C      1.69065000      5.36932000     -0.42711500
  O      2.30014000      6.48401000     -0.30512200
  C     -0.52408700      4.72286000      4.33892000
  O     -0.17818400      5.09065000      5.52611000
  C     -3.59889000     -2.47017000      4.49775000
  O     -4.62102000     -2.20460000      5.25215000
  C     -5.33538000     -0.67571800      2.27199000
  O     -6.57312000     -0.71085800      1.91690000
  C      4.91738000     -0.08905490     -3.52046000
  O      5.80186000     -0.30167700     -4.43071000
  C      1.49778000     -6.14158000     -0.72087400
  O      1.91000000     -7.32550000     -0.41148000
  C      1.93843000     -5.14991000      2.32467000
  O      2.81769000     -6.10905000      2.35154000
  C     -1.90415000     -0.59959000     -5.72142000
  O     -2.18478000     -0.48577100     -6.96152000
  C      2.80975000     -3.92147000      3.06535000
  O      2.74336000     -4.30027000      4.31496000
  C     -4.03869000      3.43679000     -2.59976000
  O     -4.96035000      3.93379000     -3.38109000
  C     -4.32574000     -1.96886000     -3.88339000
  O     -5.03003000     -2.30809000     -4.88145000
  C      0.68895100     -3.63187000     -4.59365000
  O      0.25054900     -4.20966000     -5.66275000
  C     -5.00685000      0.04813530      3.48386000
  O     -5.91487000      0.54558200      4.25266000
  C     -2.92359000      4.34270000     -2.27809000
  O     -2.88858000      5.51411000     -2.85172000
  C      5.67651000     -0.65403200      0.25763800
  O      6.90534000     -0.43121000     -0.10671700
  C      0.46218000     -5.44834000      2.53622000
  O      0.32602800     -6.40444000      3.33527000
  C      4.82929000     -0.05484640      3.58094000
  O      5.88749000     -0.10028200      4.28083000
  C     -3.48611000     -4.27260000     -1.84920000
  O     -4.37265000     -4.82629000     -2.58993000
