#B3LYP/6-31+G(d) OPT FREQ

110, Energy = -12063.89788563 au

0 1
 Ni      0.18464900     -3.92606000     -2.44288000
 Ni     -1.36147000     -0.22219500     -1.31004000
 Ni      0.52046700     -4.12343000      0.14345800
 Ni     -0.48329400      4.15179000     -0.42419100
 Ni     -1.27468000      2.36972000     -2.18110000
 Ni     -3.17947000      0.47472300      0.69733100
 Ni     -0.93881600     -0.91627800      1.33319000
 Ni     -0.10638900      3.43126000      2.33353000
 Ni      0.30565700     -1.15111000     -3.37248000
 Ni      3.13770000     -0.59205300     -0.75847500
 Ni      0.77205500     -1.65903000     -0.63355000
 Ni      2.59773000     -2.58914000     -2.91842000
 Ni      3.62003000      1.75892000     -1.37817000
 Ni      1.71387000     -0.60380700      4.16684000
 Ni      1.45001000      0.26533400      1.21671000
 Ni      2.79693000      0.09330030     -3.41369000
 Ni      1.07885000      3.53047000     -2.37830000
 Ni     -2.16981000     -1.98115000     -3.43418000
 Ni      3.41242000     -1.12644000      1.86050000
 Ni     -1.66925000     -2.84106000     -0.52642900
 Ni      4.12996000      1.31337000      1.24463000
 Ni      1.00843000      0.91155400     -1.40774000
 Ni     -1.84874000      0.53826300     -4.06248000
 Ni     -3.68952000     -1.31931000     -1.21656000
 Ni      2.24708000      2.41743000      2.94399000
 Ni     -0.25562200      0.98663700      3.09592000
 Ni      3.04165000     -3.01006000     -0.03827810
 Ni     -1.33568000     -3.37102000      2.04039000
 Ni     -2.86328000      3.09925000     -0.27323800
 Ni      1.97382000      2.83475000      0.46524300
 Ni     -2.41283000      2.36790000      2.57778000
 Ni     -2.78560000     -0.25456000      3.11803000
 Ni      0.52722300      1.53253000     -3.89230000
 Ni     -0.70694900      1.63187000      0.49405400
 Ni     -3.59524000     -2.10711000      1.41355000
 Ni     -0.53237000     -1.50143000      4.37951000
 Ni     -3.61638000      1.23332000     -1.88579000
 Ni      1.23081000     -2.42565000      2.05798000
  C     -0.41918800      1.97735000     -6.69116000
  O     -1.23120000      2.82946000     -7.35884000
  C      3.25218000      4.04236000      2.21282000
  O      3.52404000      5.08718000      2.90019000
  C     -0.18285000      5.50287000     -2.45484000
  O     -0.50675600      6.21837000     -3.45050000
  C      1.88327000     -0.03179770     -5.88185000
  O      1.62656000     -0.97033300     -6.75474000
  C     -1.29451000      3.51745000     -4.65794000
  O     -1.61970000      4.59506000     -5.30597000
  C      5.53203000      0.87819300      2.80067000
  O      5.95223000      0.75618400      4.01071000
  C     -2.27272000     -2.60654000      5.12026000
  O     -2.40073000     -3.14343000      6.27929000
  C     -1.57317000      3.10668000      4.54144000
  O     -2.05469000      3.45975000      5.61910000
  C      1.66589000     -2.43793000      4.88589000
  O      1.75971000     -2.92904000      6.07531000
  C      1.27958000     -5.38832000     -2.58798000
  O      1.03832000     -6.62474000     -2.87054000
  C      1.35895000      2.55800000      5.14284000
  O      1.69270000      3.19397000      6.21427000
  C     -0.93756100     -0.85030700     -5.52858000
  O     -0.61797600     -0.70882500     -6.77200000
  C     -1.69563000     -2.12474000     -5.16669000
  O     -2.12522000     -2.87878000     -6.12810000
  C      0.41447900      3.96788000     -4.62121000
  O      0.89499700      5.00539000     -5.34127000
  C     -5.68095000      1.28060000     -0.72172200
  O     -6.88741000      1.64383000     -0.98439500
  C     -4.08611000     -1.17006000     -4.00512000
  O     -4.91399000     -1.59709000     -4.94398000
  C     -4.99837000     -0.52935200      2.20141000
  O     -6.28636000     -0.50868000      2.47573000
  C      2.77993000     -5.36956000     -2.41450000
  O      3.56660000     -6.14980000     -1.76142000
  C      0.97652900     -2.78124000     -4.76187000
  O      0.48089900     -3.26496000     -5.84960000
  C      2.74792000     -3.42049000      4.24318000
  O      3.95742000     -3.52477000      4.69891000
  C      3.46537000     -4.26205000     -3.25259000
  O      4.22307000     -4.84836000     -4.12969000
  C      2.50665000     -2.78855000     -4.75180000
  O      3.33742000     -2.94300000     -5.71892000
  C      6.06279000      0.66442000      1.49745000
  O      7.28198000      0.38063600      1.17153000
  C      3.31176000     -0.06853040     -5.36504000
  O      4.20856000     -0.53980000     -6.13787000
  C     -0.52327000     -0.38221300      5.86852000
  O     -1.37940000     -0.12671300      6.79788000
  C      5.70543000      1.29958000     -1.15027000
  O      6.89885000      1.58950000     -0.80151500
  C     -1.63389000     -5.13244000     -1.89976000
  O     -2.00706000     -6.26481000     -2.35088000
  C      0.91719800      1.31435000     -6.66627000
  O      1.75046000      1.44949000     -7.64616000
  C      5.28363000      0.50366300     -2.29765000
  O      6.10926000     -0.04633270     -3.11241000
  C      4.85828000     -2.67326000     -1.27038000
  O      6.00693000     -3.11819000     -1.29623000
  C      0.90212700      0.06595040      5.79859000
  O      1.43572000      0.59007100      6.85909000
  C     -3.36300000     -4.34635000      1.01010000
  O     -4.20387000     -5.35059000      0.96817800
  C      3.79039000      4.03175000      0.79158700
  O      4.64941000      4.85975000      0.29269800
  C     -2.23654000      2.28354000     -4.67907000
  O     -3.27105000      2.53633000     -5.42102000
  C      2.23345000     -3.96832000      2.99532000
  O      2.57718000     -5.18405000      3.06447000
  C     -2.90598000      4.06318000     -2.22091000
  O     -3.47491000      5.04215000     -2.90560000

