#B3LYP/6-31+G(d) OPT FREQ

110, Energy = -12533.82282031 au

0 1
 Ni     -0.06474130     -3.64232000     -2.25944000
 Ni     -1.33159000     -0.20560500     -1.24084000
 Ni      0.69179800     -4.18055000      0.19127400
 Ni     -0.51392600      4.03972000     -0.15330700
 Ni     -1.26382000      2.49506000     -2.19880000
 Ni     -3.51990000      0.66876400      0.70143600
 Ni     -0.95835200     -0.83948000      1.36601000
 Ni     -0.05989480      3.74307000      2.69140000
 Ni      0.30228400     -1.00570000     -3.09917000
 Ni      3.51855000     -0.45595200     -0.82957800
 Ni      0.93205700     -1.64694000     -0.54742500
 Ni      2.84649000     -2.35491000     -2.38043000
 Ni      3.79533000      2.18563000     -1.65828000
 Ni      2.13248000     -0.17190300      3.71987000
 Ni      1.54745000      0.29120300      1.21361000
 Ni      2.77624000      0.25776500     -3.61053000
 Ni      1.18355000      3.44745000     -2.19765000
 Ni     -2.06385000     -2.40775000     -2.98307000
 Ni      3.72984000     -1.31722000      1.73677000
 Ni     -1.57965000     -2.78519000     -0.46202900
 Ni      3.98941000      1.58549000      1.03347000
 Ni      1.13317000      0.94767000     -1.33551000
 Ni     -2.20752000      0.06321880     -3.94420000
 Ni     -3.72581000     -1.29196000     -1.03860000
 Ni      2.49412000      2.34499000      3.13590000
 Ni     -0.19770000      1.29042000      3.23036000
 Ni      3.25555000     -3.45998000      0.08444800
 Ni     -1.27575000     -3.53648000      2.30176000
 Ni     -3.11873000      3.06083000      0.04385750
 Ni      1.85332000      2.89894000      0.39520500
 Ni     -2.34278000      2.35344000      2.58208000
 Ni     -2.84341000     -0.08981330      3.22846000
 Ni      0.66000900      1.44883000     -3.92975000
 Ni     -0.75004800      1.64048000      0.55018700
 Ni     -3.37720000     -1.94209000      1.56395000
 Ni     -0.71005600     -1.60190000      3.87478000
 Ni     -3.40494000      1.16109000     -1.86823000
 Ni      1.40161000     -2.41981000      2.06510000
  C      2.83148000      5.23222000      1.13997000
  O      3.64911000      6.21215000      1.28525000
  C      3.11330000      2.15819000     -4.41150000
  O      3.16493000      2.56437000     -5.63852000
  C      4.08092000      2.79201000     -3.43354000
  O      5.00225000      3.64573000     -3.72674000
  C      4.74935000     -3.01239000     -1.25148000
  O      5.74159000     -3.82258000     -1.37313000
  C      1.49048000     -0.22358100     -5.49513000
  O      1.06360000      0.01653830     -6.68739000
  C      4.27812000      3.75764000     -0.64049800
  O      5.42149000      4.33718000     -0.52549000
  C      5.63515000     -0.16036900     -0.53976100
  O      6.57612000     -0.56764600     -1.34992000
  C     -0.81237600      5.62506000      2.91936000
  O     -1.88485000      6.28543000      3.21005000
  C     -0.36108800      4.37379000     -3.56582000
  O     -0.11812400      5.12867000     -4.58383000
  C     -1.81362000     -4.30866000     -2.49264000
  O     -2.33270000     -5.45509000     -2.76018000
  C      4.93346000     -2.22060000     -2.66299000
  O      5.86373000     -1.32266000     -2.91868000
  C      1.32801000      1.81415000      4.91012000
  O      1.26584000      2.16630000      6.22199000
  C      3.23491000     -4.57722000      1.67881000
  O      3.26605000     -5.85429000      1.81691000
  C      2.58963000     -5.11377000     -0.82735200
  O      3.12760000     -6.29173000     -1.11742000
  C      0.46124800     -3.93642000      3.51949000
  O      0.89935500     -4.93741000      4.30902000
  C      4.33275000     -2.93699000     -3.86083000
  O      5.31775000     -3.45349000     -4.48922000
  C      3.03301000      4.69920000     -0.45774800
  O      2.84526000      5.70840000     -1.24764000
  C     -4.61155000      0.91008100      3.02408000
  O     -5.49683000      1.56284000      3.69313000
  C      5.44240000      1.46397000     -0.47227200
  O      6.65653000      1.89201000     -0.35082200
  C     -5.19923000     -0.50483800      0.96913800
  O     -6.41630000     -0.35776900      0.56412200
  C     -5.31473000      2.38509000      0.67516600
  O     -6.55260000      2.02925000      0.68529300
  C     -4.56627000     -0.83638500     -3.92392000
  O     -5.72720000     -1.36254000     -3.99940000
  C      3.43933000     -3.39051000      2.65441000
  O      3.95075000     -3.72175000      3.79859000
  C     -0.62899500      3.44456000      4.22193000
  O     -0.64795500      4.04557000      5.31559000
  C      0.52837000      5.83324000      2.55782000
  O      1.43139000      6.71556000      2.31420000
  C     -2.41181000     -3.00223000      3.90080000
  O     -2.99824000     -3.76683000      4.87529000
  C      4.00159000      3.33376000      2.44420000
  O      5.00525000      3.94824000      2.96717000
  C     -3.86661000     -0.07607320     -4.90910000
  O     -4.10440000      0.34357600     -6.11001000
  C      2.62513000     -1.12940000     -5.15462000
  O      3.23415000     -2.03804000     -5.82046000
  C     -4.92921000      3.77104000      0.65574000
  O     -5.57078000      4.86640000      0.85207300
  C     -1.46014000     -1.33414000     -5.11852000
  O     -1.57810000     -1.64556000     -6.39827000
  C     -1.75716000      4.03718000     -3.25035000
  O     -2.90874000      4.50639000     -3.58102000
  C      5.50644000     -0.73842400      0.90908500
  O      6.71544000     -0.94638800      1.29375000
  C      2.89561000      4.52035000      2.54497000
  O      2.79198000      5.21932000      3.61683000
  C      3.80199000      0.98491200      3.92359000
  O      4.76699000      1.07961000      4.89404000
  C     -5.38777000     -0.37271300      2.55869000
  O     -6.22407000     -1.08649000      3.20833000

