#B3LYP/6-31+G(d) OPT FREQ

110, Energy = -10206.64673541 au

0 1
 Ni      0.08069000     -3.46860000     -2.24286000
 Ni     -1.36755000     -0.22894400     -1.15882000
 Ni      0.49054300     -4.15340000      0.23141200
 Ni     -0.46736400      4.16657000     -0.21855000
 Ni     -1.13343000      2.22853000     -1.89756000
 Ni     -3.04883000      0.49960100      0.65442000
 Ni     -0.94737900     -0.86154500      1.28538000
 Ni     -0.07864680      3.47228000      2.25629000
 Ni      0.29781500     -0.96063300     -2.98094000
 Ni      3.04499000     -0.49531300     -0.65823400
 Ni      0.71417400     -1.60803000     -0.53209600
 Ni      2.40601000     -2.33566000     -2.38504000
 Ni      3.30924000      1.99719000     -1.42335000
 Ni      1.80966000     -0.40026600      3.64585000
 Ni      1.36693000      0.22876100      1.15891000
 Ni      2.64407000      0.15210200     -3.13884000
 Ni      1.19723000      3.38423000     -2.04870000
 Ni     -2.04786000     -2.07318000     -2.88545000
 Ni      3.49566000     -1.13103000      1.79851000
 Ni     -1.59481000     -2.69292000     -0.41060700
 Ni      3.73250000      1.33998000      1.04358000
 Ni      0.94731900      0.86163700     -1.28481000
 Ni     -1.81668000      0.40365800     -3.64189000
 Ni     -3.74674000     -1.34559000     -1.05413000
 Ni      2.03535000      2.07722000      2.88805000
 Ni     -0.29748400      0.96532100      2.99029000
 Ni      2.81438000     -2.99553000      0.09393560
 Ni     -1.17963000     -3.37104000      2.07228000
 Ni     -2.81379000      2.98321000     -0.07910280
 Ni      1.58861000      2.69718000      0.41116600
 Ni     -2.42042000      2.33762000      2.40760000
 Ni     -2.64430000     -0.16941100      3.14843000
 Ni      0.53477400      1.51997000     -3.75955000
 Ni     -0.71415500      1.60831000      0.53287000
 Ni     -3.30150000     -1.99557000      1.43851000
 Ni     -0.53775200     -1.52627000      3.76921000
 Ni     -3.50450000      1.13095000     -1.79534000
 Ni      1.13762000     -2.24647000      1.90579000
  C      2.64072000     -5.07318000     -2.45397000
  O      3.16293000     -6.17677000     -2.85768000
  C      5.41372000     -0.08976130     -2.03697000
  O      6.60928000     -0.37306100     -2.34743000
  C     -4.05282000     -0.12138000     -4.77558000
  O     -5.01385000     -0.27556900     -5.61651000
  C      2.49450000     -4.83800000      2.29119000
  O      3.06370000     -5.71358000      2.99804000
  C     -0.36379900      3.41161000      4.81370000
  O     -0.42301400      3.91762000      6.05377000
  C     -1.32605000      1.79636000      5.28537000
  O     -1.40919000      2.01308000      6.52163000
  C     -2.56641000     -4.74518000     -2.55539000
  O     -3.22828000     -5.82826000     -2.76005000
  C     -6.00853000     -0.81076500     -0.27591500
  O     -7.33545000     -0.77749900     -0.04767130
  C      5.87953000      1.51223000     -1.03250000
  O      7.12001000      1.42118000     -1.24772000
  C     -4.95800000     -2.71108000      3.23377000
  O     -5.62803000     -3.34697000      4.08817000
  C     -4.28818000     -4.04114000     -0.35568700
  O     -4.96705000     -5.12062000     -0.51919400
  C      1.50480000      5.89102000     -0.38941200
  O      2.06057000      7.02275000     -0.14417000
  C     -2.59622000      3.11226000      4.69066000
  O     -2.81067000      3.59819000      5.94217000
  C      4.42926000      4.25417000     -1.56182000
  O      5.21535000      5.22109000     -1.40334000
  C      2.81833000      5.26456000     -1.60036000
  O      3.43221000      6.34167000     -1.58383000
  C     -1.79813000     -3.89400000      4.74857000
  O     -2.36839000     -4.58237000      5.66792000
  C     -2.71451000      5.06466000      2.38248000
  O     -3.23763000      6.16749000      2.78736000
  C     -3.13889000     -2.50720000      4.71948000
  O     -3.83815000     -3.04734000      5.61281000
  C     -5.17709000      2.24295000      1.55242000
  O     -6.35876000      2.51758000      1.91477000
  C      5.26180000     -2.60501000     -0.81838000
  O      6.50206000     -2.83298000     -1.07024000
  C      2.13879000     -0.50673800     -5.59524000
  O      2.27237000     -0.88814000     -6.81629000
  C     -4.77052000     -1.10733000      4.47788000
  O     -5.43549000     -1.62597000      5.38618000
  C     -4.83805000     -1.94477000     -3.48441000
  O     -5.81393000     -2.10858000     -4.30564000
  C      1.74199000      2.02440000      5.48708000
  O      1.62784000      2.42200000      6.70484000
  C      1.34326000     -3.56150000     -4.70369000
  O      1.45797000     -3.95784000     -5.92145000
  C      0.52742900      0.01527400      5.99653000
  O      0.42063000      0.39648600      7.21991000
  C      2.56690000      3.66916000     -4.33224000
  O      3.23239000      4.29309000     -5.23877000
  C     -5.68550000      0.99476500      0.15879900
  O     -6.88450000      1.24812000      0.35430500
  C      4.66050000      3.59150000      1.78411000
  O      5.34515000      4.66716000      1.95435000
  C      0.92881100     -4.73444000      3.33762000
  O      1.27877000     -5.59884000      4.18484000
  C     -5.99378000      1.86947000     -1.99919000
  O     -7.23641000      2.06183000     -1.72672000
  C     -0.10095500     -1.42824000     -5.51874000
  O      0.03257010     -1.81771000     -6.73726000
  C      2.21680000      5.02967000      2.15176000
  O      2.86796000      6.11994000      2.35215000
  C     -5.45102000     -1.05763000      2.46015000
  O     -6.77118000     -0.82116100      2.71858000
  C      5.87684000     -0.41093600      0.42257500
  O      7.11948000     -0.60412000      0.15620700
  C     -3.46476000     -4.16704000      3.37327000
  O     -4.07689000     -4.82156000      4.23274000

