110
Energy = -12773.17442747 au
 Ni      0.01369230     -3.45993000     -2.35183000
 Ni     -1.43443000     -0.21746100     -1.20092000
 Ni      0.66190500     -4.43904000      0.36813100
 Ni     -0.55452900      4.68806000     -0.20635200
 Ni     -1.11100000      2.32974000     -2.04901000
 Ni     -3.15061000      0.57803100      0.76087600
 Ni     -1.09990000     -1.05694000      1.36265000
 Ni     -0.31334700      3.69069000      2.36637000
 Ni      0.39144200     -0.98480300     -3.24070000
 Ni      3.40598000     -0.64320900     -0.95756200
 Ni      0.73135500     -1.74264000     -0.58642800
 Ni      2.42506000     -2.47144000     -2.53955000
 Ni      3.10624000      2.25638000     -1.78021000
 Ni      1.63618000     -0.43858300      3.57715000
 Ni      1.26826000      0.19871400      1.05946000
 Ni      2.89110000      0.35696900     -3.53651000
 Ni      1.19129000      3.96858000     -2.18878000
 Ni     -2.00683000     -2.06697000     -2.95573000
 Ni      3.35505000     -1.25367000      1.66977000
 Ni     -1.66245000     -3.05814000     -0.37848200
 Ni      3.60015000      1.34482000      0.86247100
 Ni      0.99577800      0.86585800     -1.46391000
 Ni     -1.74495000      0.29255300     -3.83174000
 Ni     -3.87612000     -1.15297000     -0.96275500
 Ni      2.02202000      2.43985000      2.81051000
 Ni     -0.48687400      0.99519700      2.93703000
 Ni      2.85463000     -3.31974000     -0.06172030
 Ni     -1.31976000     -3.92014000      2.21032000
 Ni     -2.84638000      3.18146000     -0.29903000
 Ni      1.40728000      2.82908000      0.31380100
 Ni     -2.72645000      2.28908000      2.69148000
 Ni     -2.87718000     -0.31944400      3.44413000
 Ni      0.78572500      2.08622000     -3.79259000
 Ni     -0.89119500      1.73498000      0.51847600
 Ni     -3.54984000     -2.01944000      1.68326000
 Ni     -0.66442900     -1.97406000      3.91173000
 Ni     -3.68656000      1.37679000     -1.79441000
 Ni      1.07856000     -2.59034000      2.08291000
  C     -5.99692000      1.23090000      0.65707600
  O     -7.15499000      1.19874000      1.18963000
  C      0.30930800     -3.51400000     -4.40833000
  O     -0.37281100     -4.42680000     -5.00937000
  C     -0.71245900      4.78231000     -3.32263000
  O     -0.27620200      5.96417000     -3.65229000
  C     -1.41276000      5.91155000      1.06490000
  O     -1.99065000      6.99735000      0.65693700
  C     -2.31643000     -4.88655000     -0.18047400
  O     -2.65836000     -5.71267000     -1.11631000
  C      2.27180000      3.12426000     -4.53458000
  O      2.33029000      3.43040000     -5.77593000
  C     -1.20051000      5.42154000      2.45038000
  O     -1.53732000      5.96858000      3.57051000
  C      3.16528000      3.54896000     -3.37112000
  O      4.22289000      4.27502000     -3.55560000
  C     -1.65953000     -1.01106000     -5.35833000
  O     -2.38774000     -0.67364900     -6.36574000
  C      2.63254000     -5.29661000     -0.44787400
  O      3.12081000     -6.18001000      0.35586200
  C     -2.47582000     -5.12865000      1.30741000
  O     -3.21572000     -5.95553000      1.95774000
  C      3.74801000      0.92295200     -5.25861000
  O      3.53490000      0.92007900     -6.53369000
  C     -2.09536000      5.03631000     -2.36517000
  O     -2.38920000      6.29284000     -2.45225000
  C      0.49980000     -5.26451000      2.32533000
  O      1.01599000     -6.37365000      2.73999000
  C      0.89172600     -3.39444000      3.98310000
  O      1.85957000     -3.75751000      4.77521000
  C      2.84070000     -4.47699000     -3.16758000
  O      4.02337000     -4.66790000     -3.64928000
  C     -5.54544000      2.04214000     -0.74323200
  O     -6.16719000      3.04967000     -1.22292000
  C     -2.13455000      3.00468000      4.48839000
  O     -2.84759000      3.30713000      5.51988000
  C      2.37943000      4.31959000      2.91292000
  O      3.41463000      4.99432000      3.28620000
  C     -3.47874000     -1.99023000      4.78949000
  O     -4.30680000     -1.68055000      5.75549000
  C      1.92305000     -3.78360000     -4.41800000
  O      2.55682000     -3.63734000     -5.52992000
  C     -0.51193200      3.55957000     -4.30218000
  O     -0.61348300      3.74401000     -5.58967000
  C     -5.76200000      0.38776800     -0.83070000
  O     -6.62554000     -0.25818900     -1.53777000
  C      5.23734000     -1.81149000     -1.29751000
  O      5.83514000     -2.93583000     -1.49500000
  C     -0.50439000     -2.00779000     -5.33621000
  O     -0.12377600     -2.43638000     -6.48821000
  C     -3.23572000      4.00533000     -2.03990000
  O     -4.46950000      4.26698000     -2.36211000
  C      5.44858000     -0.42026300     -1.24763000
  O      6.39362000      0.45020800     -1.35732000
  C      4.71347000      1.37815000     -4.34149000
  O      5.82443000      1.99606000     -4.22739000
  C     -0.13298600     -4.67057000      3.71676000
  O     -0.71998000     -5.26400000      4.68217000
  C      0.95682000      5.92221000     -0.08917580
  O      1.05095000      6.87242000      0.77135600
  C     -3.91242000     -2.79057000      3.49295000
  O     -4.89159000     -3.59045000      3.77317000
  C      1.83724000      5.52254000     -1.21502000
  O      2.87497000      6.21040000     -1.61069000
  C     -4.96284000      1.06555000      1.97092000
  O     -5.20097000      2.03012000      2.81695000
  C     -4.92593000     -0.49830400      2.33910000
  O     -6.08806000     -1.00237000      2.49615000
  C     -2.01956000     -2.41899000      5.13888000
  O     -1.93949000     -3.12700000      6.20991000
  C      2.43131000     -5.52290000     -1.97423000
  O      2.39055000     -6.71275000     -2.46883000
