#B3LYP/6-31+G(d) OPT FREQ

110, Energy = -11972.72988999 au

0 1
 Ni      0.28994000     -3.74172000     -2.28041000
 Ni     -1.33348000     -0.19979800     -1.12468000
 Ni      0.62592600     -4.34457000      0.18402700
 Ni     -0.41452700      4.54655000     -0.19659200
 Ni     -1.15884000      2.42244000     -1.87453000
 Ni     -2.99446000      0.60311100      0.70811500
 Ni     -0.90237800     -0.82156200      1.36257000
 Ni      0.06910400      3.96025000      2.25961000
 Ni      0.39023400     -0.96294800     -2.95162000
 Ni      3.29803000     -0.56777300     -0.67694300
 Ni      0.80267800     -1.66069000     -0.54489100
 Ni      2.68776000     -2.48070000     -2.34651000
 Ni      3.57372000      2.03286000     -1.45503000
 Ni      1.78036000     -0.32273600      3.77667000
 Ni      1.48380000      0.34170200      1.22018000
 Ni      2.85666000      0.19890500     -3.25775000
 Ni      1.12618000      3.61036000     -2.26075000
 Ni     -1.96726000     -2.08837000     -2.86890000
 Ni      3.71032000     -1.21567000      1.81300000
 Ni     -1.59098000     -2.86767000     -0.44522800
 Ni      4.11565000      1.54227000      0.99057100
 Ni      1.04714000      0.95826500     -1.29203000
 Ni     -1.75463000      0.44988200     -3.59939000
 Ni     -3.68698000     -1.32120000     -1.04717000
 Ni      2.17546000      2.44989000      3.27821000
 Ni     -0.26086000      1.24289000      3.29129000
 Ni      2.96747000     -3.24825000      0.10889900
 Ni     -1.18489000     -3.36025000      2.07258000
 Ni     -2.90995000      3.56813000     -0.12875100
 Ni      1.82338000      3.01332000      0.41620900
 Ni     -2.53025000      2.77325000      2.49864000
 Ni     -2.56178000     -0.11439900      3.38346000
 Ni      0.69955200      1.81540000     -3.87030000
 Ni     -0.69027500      1.77508000      0.60709400
 Ni     -3.25183000     -1.99053000      1.41325000
 Ni     -0.71179000     -1.54388000      4.06819000
 Ni     -3.57009000      1.17477000     -1.78863000
 Ni      1.22607000     -2.25461000      1.91486000
  C     -0.65915700      0.17721800      6.05953000
  O     -0.70215200      0.67401000      7.24795000
  C     -2.20736000     -2.98045000      4.83755000
  O     -2.62656000     -3.33870000      5.97741000
  C      4.95882000      0.08840080     -3.68111000
  O      5.86165000     -0.39844200     -4.44872000
  C      4.64367000     -3.07641000     -2.46619000
  O      5.80270000     -2.82202000     -2.95385000
  C     -2.15383000      5.00365000     -2.40708000
  O     -2.46323000      5.66385000     -3.46205000
  C      3.65458000      4.39308000      1.95075000
  O      3.97747000      5.57389000      2.29944000
  C     -2.93393000     -4.73171000      0.14666800
  O     -3.51614000     -5.74470000     -0.37250100
  C      1.62851000      2.68117000      5.11770000
  O      2.22785000      3.23080000      6.11631000
  C      5.89947000      0.41793900     -1.33688000
  O      6.63560000     -0.15617100     -2.23739000
  C      0.21231800      2.37826000      5.08074000
  O     -0.46168000      2.74441000      6.12813000
  C      4.61331000      3.40311000      1.19537000
  O      5.60167000      4.10710000      0.77568700
  C      2.68414000      2.74610000     -4.43781000
  O      3.18380000      3.34231000     -5.44735000
  C      1.07305000     -0.00876349      5.77081000
  O      1.66930000      0.41957800      6.90872000
  C      3.99403000     -4.31218000     -2.01195000
  O      4.56375000     -5.41223000     -2.35432000
  C      2.05807000     -6.05336000     -1.38826000
  O      3.13850000     -6.73816000     -1.59465000
  C      5.10153000     -0.19129000      3.40452000
  O      6.14203000     -0.45289100      4.11547000
  C      2.93129000      4.64899000      0.29714800
  O      3.34775000      5.84572000     -0.08103490
  C     -3.51109000      4.49936000      2.36874000
  O     -3.94923000      5.23793000      3.33532000
  C     -3.31548000      4.76385000     -1.52258000
  O     -4.40630000      5.41385000     -1.75522000
  C     -5.77568000      1.69796000     -1.05398000
  O     -7.05319000      1.65824000     -1.21630000
  C     -3.58684000      5.01066000      0.99514400
  O     -3.97819000      6.19169000      0.68440400
  C      1.52455000     -6.25626000     -0.01039220
  O      1.69094000     -7.49041000      0.24707900
  C      3.23407000      4.10339000      3.77016000
  O      4.31443000      4.24219000      4.41622000
  C      1.14587000     -5.46082000     -2.45626000
  O      1.11238000     -6.40594000     -3.32797000
  C     -2.47390000      2.71056000      4.77993000
  O     -2.82176000      3.47148000      5.74109000
  C      5.44810000     -1.04213000     -0.25719400
  O      6.24959000     -2.00104000     -0.45964900
  C      5.61421000      1.92351000     -1.37123000
  O      6.77057000      2.42997000     -1.57080000
  C     -0.02330250      4.15749000     -4.22126000
  O     -0.20582400      4.55875000     -5.41252000
  C     -0.20062500      5.11061000     -3.05743000
  O     -0.21396200      6.41118000     -3.16395000
  C     -2.02300000     -0.35774900      5.61997000
  O     -2.83499000     -0.45821300      6.59507000
  C      0.65624600      6.07377000      0.38764700
  O      0.90277100      7.24788000     -0.07848340
  C      1.98616000      4.87222000      4.02220000
  O      2.05186000      6.00090000      4.53837000
  C      5.90101000      0.34486800      0.40509700
  O      7.10922000      0.70046600      0.65169200
  C      3.59596000     -4.00914000      2.10667000
  O      4.09921000     -5.05680000      2.59945000
  C      1.14366000      5.69645000      1.69866000
  O      1.92010000      6.55898000      2.27881000
  C     -1.19797000      5.64437000      1.95856000
  O     -1.58510000      6.76266000      2.49065000

