#B3LYP/6-31+G(d) OPT FREQ

110, Energy = -10074.46704693 au

0 1
 Ni      0.08147940     -3.46352000     -2.23798000
 Ni     -1.36617000     -0.22844600     -1.15862000
 Ni      0.48672700     -4.15946000      0.22481400
 Ni     -0.47774600      4.15825000     -0.21845400
 Ni     -1.13878000      2.23522000     -1.90513000
 Ni     -3.02435000      0.49319700      0.65478000
 Ni     -0.94572500     -0.86088400      1.28419000
 Ni     -0.07239400      3.46972000      2.23730000
 Ni      0.29294400     -0.96024200     -2.97583000
 Ni      3.02158000     -0.49356500     -0.65386700
 Ni      0.71383400     -1.60803000     -0.53178000
 Ni      2.40691000     -2.32657000     -2.38848000
 Ni      3.27986000      1.98722000     -1.42795000
 Ni      1.82353000     -0.40353500      3.64532000
 Ni      1.36633000      0.22841300      1.15868000
 Ni      2.63728000      0.15821500     -3.14557000
 Ni      1.18008000      3.36826000     -2.05166000
 Ni     -2.03411000     -2.06936000     -2.89180000
 Ni      3.49513000     -1.13480000      1.81559000
 Ni     -1.58465000     -2.68618000     -0.40810700
 Ni      3.71616000      1.33975000      1.05856000
 Ni      0.94595300      0.86104500     -1.28447000
 Ni     -1.81565000      0.41377800     -3.63617000
 Ni     -3.71573000     -1.33868000     -1.05316000
 Ni      2.03657000      2.06548000      2.89116000
 Ni     -0.29149900      0.95795900      2.97302000
 Ni      2.81157000     -2.99816000      0.09041950
 Ni     -1.17368000     -3.36382000      2.05021000
 Ni     -2.80720000      2.98742000     -0.09482040
 Ni      1.59010000      2.69723000      0.40961000
 Ni     -2.40842000      2.32002000      2.37787000
 Ni     -2.63613000     -0.15400000      3.13441000
 Ni      0.52552800      1.52125000     -3.75899000
 Ni     -0.71334700      1.60804000      0.53159000
 Ni     -3.28118000     -1.98175000      1.42258000
 Ni     -0.52583400     -1.51749000      3.75609000
 Ni     -3.48738000      1.14053000     -1.81013000
 Ni      1.13707000     -2.23303000      1.90016000
  C     -5.01371000      1.54180000      2.81856000
  O     -6.25725000      1.74110000      3.08553000
  C      1.13370000      6.19780000     -0.82025800
  O      1.77430000      7.29790000     -0.69628000
  C     -0.45413400      4.28747000     -4.10611000
  O     -0.88585800      5.20705000     -4.89578000
  C     -4.08873000      2.26100000     -4.22303000
  O     -4.58240000      3.14121000     -5.01647000
  C      0.55004500     -6.50468000      1.58643000
  O      0.98755000     -7.43411000      2.36753000
  C     -3.24105000      3.81445000     -3.00855000
  O     -3.70117000      4.72637000     -3.79210000
  C      3.55602000      3.29912000     -3.86078000
  O      4.23057000      3.96165000     -4.73528000
  C      5.06515000      1.38366000      3.33989000
  O      6.02220000      1.59103000      4.17366000
  C      2.18259000     -5.38471000     -2.22700000
  O      2.68578000     -6.49574000     -2.64294000
  C      3.53016000      0.62430100      5.28970000
  O      4.48147000      0.82509800      6.13766000
  C     -2.02928000      3.12532000     -4.50078000
  O     -2.51074000      3.98877000     -5.32900000
  C     -1.09330000     -2.56493000     -5.26306000
  O     -1.03574000     -2.92566000     -6.48860000
  C      4.42732000     -0.97535100      4.55627000
  O      5.41535000     -0.86156600      5.36873000
  C      2.42289000     -5.93127000      1.11727000
  O      2.90573000     -6.81227000      1.90537000
  C      0.23205100      3.02864000      5.03629000
  O      0.10296800      3.39686000      6.26012000
  C     -0.63809500      4.71932000      4.40707000
  O     -0.76878700      5.14498000      5.61313000
  C      0.52346800     -5.13797000      3.10560000
  O      0.96866300     -6.01446000      3.93390000
  C     -4.66960000      4.15868000     -1.70288000
  O     -5.19774000      5.06263000     -2.45517000
  C      2.61775000     -3.71070000     -4.55454000
  O      2.76670000     -4.12966000     -5.74828000
  C      5.78122000     -0.43361100      2.85932000
  O      6.76847000     -0.31651700      3.66036000
  C      0.38214000      6.39761000      1.09603000
  O      1.02791000      7.49711000      1.24785000
  C      3.65214000     -5.15765000     -0.82811900
  O      4.22248000     -6.25710000     -1.18170000
  C      3.51553000      1.71036000     -4.97007000
  O      4.17805000      2.26118000     -5.90797000
  C     -2.83678000     -4.50787000     -3.02103000
  O     -3.50005000     -5.59152000     -3.22421000
  C      2.82489000      5.19987000     -1.24097000
  O      3.51814000      6.27870000     -1.15108000
  C      4.91684000     -2.70451000     -2.42289000
  O      6.15604000     -2.92203000     -2.69173000
  C      0.97889400      0.68077300      5.84249000
  O      0.85060800      1.02933000      7.06951000
  C      2.09148000      2.33545000      5.43015000
  O      2.02109000      2.74406000      6.64554000
  C      0.46998800     -0.90879500     -5.63180000
  O      0.58888400     -1.29416000     -6.85377000
  C      3.14314000      4.73213000      0.65473600
  O      3.81849000      5.78999000      0.85083700
  C      2.97295000     -1.76057000     -5.12904000
  O      3.09454000     -2.11563000     -6.35962000
  C      4.07136000     -4.72548000      1.40263000
  O      4.60929000     -5.62655000      2.15099000
  C      3.38856000     -3.73635000      2.98807000
  O      3.86950000     -4.61390000      3.79751000
  C      0.60550900     -3.45274000     -4.82308000
  O      0.72839800     -3.86134000     -6.02065000
  C      1.65627000      5.37524000      2.19795000
  O      2.32709000      6.42890000      2.44200000
  C     -5.95306000     -0.86536400      0.19708500
  O     -7.19919000     -0.67604800      0.45670200

