#B3LYP/6-31+G(d) OPT FREQ

110, Energy = -11788.93890870 au

0 1
 Ni     -0.05772820     -3.69358000     -2.26462000
 Ni     -1.41758000     -0.24203300     -1.17287000
 Ni      0.33390000     -4.24559000      0.21245500
 Ni     -0.36447300      4.34689000     -0.36651000
 Ni     -1.24291000      2.38725000     -2.06211000
 Ni     -3.15313000      0.52032900      0.77885200
 Ni     -1.01401000     -0.90931000      1.31870000
 Ni     -0.09885690      3.46814000      2.51791000
 Ni      0.34152700     -0.95012400     -3.01240000
 Ni      3.15552000     -0.50168300     -0.76841700
 Ni      0.71556000     -1.66729000     -0.52397600
 Ni      2.62915000     -2.29208000     -2.51794000
 Ni      3.34515000      2.17826000     -1.48243000
 Ni      1.77752000     -0.36459700      3.65132000
 Ni      1.35956000      0.25525500      1.17157000
 Ni      2.78010000      0.28547100     -3.38871000
 Ni      1.16650000      3.48315000     -2.21033000
 Ni     -2.12490000     -2.24740000     -2.90947000
 Ni      3.47875000     -1.11058000      1.78522000
 Ni     -1.78979000     -2.97982000     -0.46780300
 Ni      3.71659000      1.48656000      1.09079000
 Ni      0.96856500      0.92832400     -1.34218000
 Ni     -1.86723000      0.48679600     -3.69571000
 Ni     -3.80697000     -1.54098000     -0.98873000
 Ni      2.07882000      2.18505000      3.06399000
 Ni     -0.35933200      1.01352000      3.16647000
 Ni      2.92485000     -3.04475000      0.07911680
 Ni     -1.33088000     -3.50492000      1.93481000
 Ni     -2.97529000      3.20306000     -0.29004200
 Ni      1.61071000      2.86125000      0.42675800
 Ni     -2.45510000      2.32631000      2.64293000
 Ni     -2.88960000     -0.08961350      3.45397000
 Ni      0.55086000      1.81461000     -3.99958000
 Ni     -0.75601400      1.68884000      0.54104600
 Ni     -3.65747000     -2.08301000      1.54136000
 Ni     -0.61746900     -1.49501000      3.79354000
 Ni     -3.53132000      1.32536000     -1.87947000
 Ni      1.21108000     -2.41339000      2.03832000
  C      4.05903000      1.77548000     -4.47806000
  O      5.20398000      2.22209000     -4.85177000
  C     -5.04772000      0.63082800      2.74067000
  O     -6.04518000      1.34284000      3.11195000
  C     -4.86156000     -3.89889000      1.43231000
  O     -5.89760000     -4.44711000      1.99821000
  C      4.17882000      4.00215000      0.04829500
  O      5.21464000      4.64836000      0.05359720
  C      3.61518000      3.99153000      2.94856000
  O      4.03740000      5.11210000      3.40947000
  C      4.83244000     -3.79618000     -1.27787000
  O      6.11145000     -3.93364000     -1.33224000
  C     -2.18310000      0.32635300      5.52906000
  O     -2.01174000      0.01121730      6.78035000
  C     -1.57474000      5.03482000     -2.53660000
  O     -1.66659000      6.31939000     -2.80444000
  C     -0.37856500      3.37312000     -4.89585000
  O     -0.67956900      3.65235000     -6.09998000
  C     -3.67277000     -4.73214000      1.00326000
  O     -3.90982000     -6.00179000      1.08194000
  C      2.78499000      5.09796000      0.54279800
  O      3.47523000      5.93418000      1.25841000
  C     -3.37564000     -4.19696000     -2.74332000
  O     -4.31350000     -5.02467000     -2.41242000
  C     -1.38697000     -5.72873000      0.63546800
  O     -1.73905000     -6.89045000      0.98326200
  C     -3.64062000     -1.96618000      4.57432000
  O     -4.39541000     -2.23614000      5.57120000
  C     -3.04273000      4.45399000     -2.19218000
  O     -4.03911000      5.26352000     -2.24335000
  C     -1.19416000     -5.50668000     -2.05735000
  O     -1.45200000     -6.47561000     -2.82759000
  C     -2.03448000     -5.44531000     -0.80665700
  O     -3.10136000     -6.13723000     -1.02020000
  C      3.69129000      4.11752000     -2.98150000
  O      4.45396000      4.56299000     -3.90844000
  C     -2.60297000      1.74109000      5.17329000
  O     -3.48739000      2.24083000      5.99182000
  C     -1.62976000      3.29435000      4.77306000
  O     -2.25198000      4.04481000      5.64015000
  C      2.64424000     -4.20757000      2.85243000
  O      3.46853000     -5.21207000      2.95642000
  C     -4.77512000     -3.55736000     -0.19166100
  O     -5.54240000     -4.44401000     -0.67832200
  C     -2.88558000     -4.23747000     -4.05906000
  O     -3.29729000     -5.12995000     -4.88356000
  C     -5.35347000     -0.78024200      2.37254000
  O     -6.56041000     -1.13530000      2.51847000
  C      2.56858000     -1.73962000     -4.92751000
  O      2.74053000     -2.14726000     -6.12158000
  C     -3.87425000     -0.10249000     -4.91611000
  O     -4.63117000     -0.07663110     -5.95731000
  C     -5.29289000      2.50644000     -0.10140400
  O     -6.45171000      2.93045000      0.20699100
  C      0.22610500      1.41994000      5.43467000
  O     -0.29639200      1.87789000      6.51101000
  C     -0.52414400      4.49471000     -3.86540000
  O     -0.38441700      5.61540000     -4.49538000
  C     -3.10461000      3.28768000     -3.23178000
  O     -3.45665000      3.85010000     -4.33372000
  C     -0.17930500      3.71042000      4.61992000
  O      0.45223200      4.21313000      5.61032000
  C      4.91012000     -1.41458000     -2.27845000
  O      6.11537000     -1.66716000     -2.48167000
  C      4.35556000      1.91787000      3.89540000
  O      5.14215000      2.22029000      4.86288000
  C      2.80035000      2.19589000     -5.01983000
  O      2.84424000      2.90834000     -6.07751000
  C      1.45678000      5.61759000      0.07201920
  O      1.46841000      6.92126000      0.09353720
  C      1.86228000     -3.72486000      3.89880000
  O      1.85675000     -4.18025000      5.10230000

