110
Energy = -12127.80899637 au
 Ni      0.09751600     -3.71331000     -2.19029000
 Ni     -1.36516000     -0.24276200     -1.20975000
 Ni      0.45767900     -4.46149000      0.12868300
 Ni     -0.63585500      4.27823000     -0.39012600
 Ni     -1.25883000      2.43662000     -2.16778000
 Ni     -3.02693000      0.48051300      0.64892100
 Ni     -0.97100800     -0.91022300      1.32695000
 Ni     -0.18581200      3.68499000      2.25079000
 Ni      0.31333600     -1.11423000     -3.18964000
 Ni      3.20414000     -0.54441900     -0.74248300
 Ni      0.73301200     -1.68201000     -0.55298300
 Ni      2.62327000     -2.35979000     -2.42424000
 Ni      3.28324000      2.06320000     -1.49576000
 Ni      1.75524000     -0.30528600      3.82269000
 Ni      1.43485000      0.24486600      1.17900000
 Ni      2.73858000      0.07919280     -3.11362000
 Ni      1.32200000      3.68632000     -2.24498000
 Ni     -2.10590000     -2.33499000     -2.94950000
 Ni      3.64415000     -1.15058000      1.69049000
 Ni     -1.79436000     -3.00065000     -0.42480400
 Ni      3.94702000      1.29348000      0.92162100
 Ni      0.95962000      0.90095100     -1.31354000
 Ni     -1.86257000      0.35581900     -3.64610000
 Ni     -3.69966000     -1.31021000     -1.06489000
 Ni      2.01028000      2.33986000      2.94837000
 Ni     -0.23450400      1.00339000      3.09921000
 Ni      3.01669000     -2.99666000     -0.03383560
 Ni     -1.32287000     -3.36686000      2.10289000
 Ni     -2.81882000      3.15723000     -0.19862400
 Ni      1.79736000      3.00778000      0.46611000
 Ni     -2.43781000      2.27998000      2.39379000
 Ni     -2.84290000     -0.26448600      3.22327000
 Ni      0.57564900      1.72014000     -3.78104000
 Ni     -0.68516800      1.67746000      0.51279700
 Ni     -3.52206000     -2.37601000      1.47400000
 Ni     -0.66472800     -1.61576000      3.91730000
 Ni     -3.61773000      1.37387000     -2.03324000
 Ni      1.29749000     -2.42815000      2.01713000
  C     -3.72252000     -3.57965000      3.32653000
  O     -4.16384000     -4.61643000      3.93271000
  C     -3.29905000     -4.60006000      0.09824590
  O     -3.42883000     -5.86990000     -0.10328500
  C     -1.50983000      5.54649000     -2.00427000
  O     -1.32877000      6.40982000     -2.93440000
  C      2.85204000      4.34253000      2.69900000
  O      3.27260000      5.28081000      3.51300000
  C      0.88528000      1.87491000      5.30038000
  O      0.60305300      2.77462000      6.19050000
  C      5.84307000      0.99883100     -0.02249310
  O      6.92811000      1.53895000     -0.43807800
  C      2.93510000      3.35749000     -3.96694000
  O      3.52279000      4.08772000     -4.82228000
  C     -1.83251000      5.61275000      1.86532000
  O     -2.64027000      6.59538000      1.63203000
  C      5.43891000     -2.04308000     -0.20248800
  O      6.59727000     -2.67292000     -0.08231430
  C      2.65117000     -3.50231000      3.64500000
  O      3.35081000     -3.67486000      4.71924000
  C      2.19505000     -4.50547000      2.78570000
  O      2.39889000     -5.77700000      2.93320000
  C     -2.81385000      5.18198000     -1.52641000
  O     -3.80351000      5.86066000     -1.96352000
  C     -4.64666000      1.17293000      4.16753000
  O     -5.91943000      1.16420000      4.37140000
  C     -1.41251000     -2.82367000      5.66066000
  O     -1.28086000     -3.60568000      6.66388000
  C      3.07813000      4.53951000      1.28173000
  O      3.93765000      5.41275000      0.87416300
  C      1.88232000     -5.47720000     -1.64691000
  O      2.27570000     -6.62998000     -1.99623000
  C     -3.76430000      3.16054000     -3.14788000
  O     -4.76687000      3.87128000     -3.57899000
  C      4.80666000     -1.44331000     -2.62550000
  O      6.00539000     -1.29699000     -3.11083000
  C     -0.80626200     -6.08804000     -0.30070800
  O     -1.15644000     -7.23368000      0.15919200
  C     -4.54549000     -2.35490000      3.83820000
  O     -5.35329000     -2.45293000      4.83452000
  C     -5.31377000     -1.21928000      2.86901000
  O     -6.58446000     -0.77687300      2.71200000
  C     -2.59879000     -2.19933000      5.32708000
  O     -3.59857000     -2.35109000      6.13216000
  C      5.05435000     -2.64832000     -1.67761000
  O      5.64082000     -3.72525000     -2.06490000
  C     -0.06155750      4.13758000     -4.08378000
  O     -0.15942300      5.15302000     -4.91548000
  C      5.91466000     -0.44749000      0.45153300
  O      7.03595000     -0.71548400      1.04114000
  C     -0.17689000     -1.76234000     -5.40217000
  O     -0.79890500     -1.84697000     -6.53428000
  C     -2.94432000     -4.15304000     -3.68196000
  O     -3.64522000     -4.77586000     -4.54489000
  C     -4.37537000     -4.04956000      0.91399600
  O     -5.43159000     -4.69989000      1.27589000
  C     -1.13543000      5.51023000      3.07513000
  O     -1.26563000      6.42344000      4.00000000
  C      2.55648000      5.04580000     -0.95747000
  O      3.08052000      6.22686000     -1.09555000
  C     -1.23948000     -5.74552000     -1.69719000
  O     -1.30720000     -6.76140000     -2.51964000
  C     -4.78737000      0.25954100     -3.76710000
  O     -5.88585000      0.33737300     -4.42721000
  C      1.33018000      0.59348600      5.79752000
  O      1.44147000      0.39302000      7.06208000
  C      1.10315000     -2.24927000     -5.11396000
  O      1.88125000     -2.85594000     -5.95273000
  C     -2.43259000      3.50590000     -3.63535000
  O     -2.28731000      4.34303000     -4.59398000
  C     -2.66723000     -4.80247000     -2.36686000
  O     -3.60490000     -5.67124000     -2.23131000
