110
Energy = -12062.13379641 au
 Ni      0.16178200     -3.63844000     -2.11399000
 Ni     -1.45075000     -0.27062700     -1.17887000
 Ni      0.85568900     -4.53627000      0.27214100
 Ni     -0.55647200      4.18415000     -0.27575600
 Ni     -1.29993000      2.31703000     -1.97101000
 Ni     -3.24140000      0.45409200      0.80385900
 Ni     -1.02145000     -0.91832600      1.42846000
 Ni     -0.11411300      3.43152000      2.51337000
 Ni      0.36127400     -1.06945000     -3.29919000
 Ni      3.19279000     -0.53221700     -0.74040600
 Ni      0.72157100     -1.67111000     -0.50146500
 Ni      2.55044000     -2.53840000     -2.34030000
 Ni      3.37462000      1.82390000     -1.47082000
 Ni      2.00756000     -0.44593000      4.03190000
 Ni      1.38622000      0.21505200      1.31896000
 Ni      2.99636000      0.28206600     -3.52489000
 Ni      1.24169000      3.25728000     -2.20643000
 Ni     -2.31581000     -2.33114000     -3.23645000
 Ni      3.61857000     -1.08312000      2.14836000
 Ni     -1.81549000     -2.90896000     -0.35104500
 Ni      3.81375000      1.36638000      1.42408000
 Ni      0.92345500      0.81751700     -1.36474000
 Ni     -1.82228000      0.25078900     -3.70791000
 Ni     -3.98717000     -1.30021000     -0.89395300
 Ni      2.15880000      2.13444000      3.29202000
 Ni     -0.33628200      1.00992000      3.43045000
 Ni      2.90277000     -3.24466000      0.00807371
 Ni     -1.33510000     -3.42888000      2.37272000
 Ni     -3.17056000      3.04846000     -0.11563600
 Ni      1.58294000      2.64738000      0.50565100
 Ni     -2.45432000      2.47557000      2.69376000
 Ni     -2.65955000     -0.06943690      3.36435000
 Ni      0.80576400      1.53604000     -4.08164000
 Ni     -0.82411300      1.63558000      0.63483600
 Ni     -3.73689000     -2.28427000      1.65247000
 Ni     -0.37135500     -1.50682000      4.09137000
 Ni     -3.91908000      1.28583000     -1.74818000
 Ni      1.19088000     -2.26680000      2.10160000
  C      4.54586000      0.72028900     -4.69558000
  O      4.84940000      1.58525000     -5.63822000
  C     -1.42792000      1.30078000      5.21150000
  O     -1.17836000      1.69464000      6.40969000
  C     -3.26363000      2.76896000      4.50713000
  O     -3.42619000      3.68105000      5.42914000
  C     -3.71305000     -1.66969000     -4.52450000
  O     -4.64430000     -2.23146000     -5.20994000
  C      1.30663000     -4.40475000      3.72914000
  O      1.21319000     -5.26360000      4.68947000
  C     -4.02159000     -3.31640000      3.60786000
  O     -4.64931000     -2.86104000      4.70192000
  C      4.84645000      1.47647000      3.14280000
  O      5.99655000      1.95031000      3.46402000
  C      3.79278000     -4.41470000     -1.70939000
  O      4.87636000     -5.03603000     -2.01977000
  C     -5.17755000     -0.70058900      1.58435000
  O     -6.45316000     -0.57776100      1.90609000
  C      1.43653000     -5.39878000      2.33425000
  O      0.96425500     -6.51184000      2.81723000
  C     -3.61739000     -4.03606000     -0.00137812
  O     -4.10908000     -5.17240000     -0.18632300
  C      1.42572000      0.95825500      5.63519000
  O      2.13534000      1.32993000      6.65423000
  C     -3.25591000      3.61473000     -2.42828000
  O     -3.74496000      4.64044000     -3.19130000
  C      0.76634800      2.77904000      5.10049000
  O      0.96625700      3.24297000      6.28865000
  C     -5.59199000      2.41867000     -1.03896000
  O     -6.78127000      2.57253000     -1.51173000
  C      4.84228000     -0.10619000     -2.41268000
  O      6.08945000     -0.36932900     -2.76799000
  C     -5.73477000     -0.10883600     -1.20151000
  O     -6.98527000     -0.01162380     -0.82446600
  C      1.54530000     -0.16284800     -5.28058000
  O      1.69893000     -0.45567000     -6.54164000
  C     -4.88023000     -3.85276000      2.49085000
  O     -5.72557000     -4.73339000      2.16774000
  C      4.61156000     -0.93807900      3.86294000
  O      5.68282000     -1.32201000      4.45653000
  C     -3.06313000      1.47053000      5.28470000
  O     -3.75819000      0.98353500      6.23836000
  C      1.47247000     -5.70756000     -1.19233000
  O      1.38668000     -6.99454000     -1.23002000
  C     -1.85144000      5.54168000     -1.69044000
  O     -1.87723000      6.63994000     -2.35866000
  C     -0.73309700     -1.66373000     -5.06989000
  O     -0.44135800     -2.05305000     -6.29661000
  C      4.48899000      0.54694500      4.28235000
  O      4.55598000      0.91976800      5.53741000
  C      2.41073000      2.72027000     -4.54534000
  O      2.89887000      3.29920000     -5.61643000
  C      3.11589000      4.22026000      2.96926000
  O      3.91660000      5.02073000      3.58384000
  C     -2.64816000     -4.02556000      3.68055000
  O     -2.71381000     -5.00318000      4.52129000
  C      0.84533100     -0.36663200      6.36958000
  O      1.41317000     -0.94868200      7.38758000
  C      1.62647000     -2.96649000      4.33962000
  O      2.33890000     -3.01074000      5.41355000
  C     -2.76116000     -4.35547000     -2.88427000
  O     -3.69585000     -5.09806000     -3.35922000
  C     -0.58744000     -0.89788000      5.90153000
  O     -1.28859000     -0.70486200      6.95632000
  C      2.65066000     -5.38255000     -2.14779000
  O      2.82430000     -6.07641000     -3.21104000
  C     -0.36633300      3.51100000      4.45429000
  O     -1.03657000      4.38580000      5.17633000
  C     -5.17988000      2.84531000      0.32892100
  O     -6.00781000      3.11183000      1.27655000
  C      2.49201000     -5.54384000      1.26065000
  O      3.31918000     -6.52092000      1.24415000
