110
Energy = -12139.57831854 au
 Ni     -0.02172250     -3.38538000     -2.35072000
 Ni     -1.42119000     -0.32381700     -1.29633000
 Ni      0.17040100     -4.57764000      0.31027600
 Ni     -0.52248600      4.20092000     -0.36519200
 Ni     -1.15789000      2.17763000     -2.01003000
 Ni     -3.23331000      0.46714700      0.64476600
 Ni     -1.01545000     -1.00763000      1.31479000
 Ni     -0.03637080      3.53141000      2.47881000
 Ni      0.29862300     -1.09374000     -3.36334000
 Ni      3.43434000     -0.54136600     -0.60678400
 Ni      0.76336800     -1.67467000     -0.52051400
 Ni      2.74330000     -2.26085000     -2.31227000
 Ni      3.71629000      2.22930000     -1.70619000
 Ni      1.87690000     -0.64537800      3.77301000
 Ni      1.50341000      0.24266900      1.16279000
 Ni      2.73700000      0.33611800     -3.49230000
 Ni      1.40925000      3.40495000     -2.38399000
 Ni     -2.40308000     -2.15794000     -3.60054000
 Ni      3.49832000     -1.29247000      1.83447000
 Ni     -1.71734000     -3.09601000     -0.45600300
 Ni      4.05638000      1.55820000      0.88269000
 Ni      1.12415000      0.88098400     -1.38522000
 Ni     -2.24079000      0.33753000     -4.32794000
 Ni     -3.71845000     -1.70004000     -1.07738000
 Ni      2.24968000      2.28109000      2.73603000
 Ni     -0.25650000      0.90707300      3.03786000
 Ni      2.70284000     -3.24449000      0.26165000
 Ni     -1.27932000     -3.59563000      2.27463000
 Ni     -3.01507000      2.85152000     -0.09815220
 Ni      1.77077000      2.93012000      0.26523700
 Ni     -2.36703000      2.37223000      2.69758000
 Ni     -2.66630000     -0.46434000      3.22965000
 Ni      0.42534900      1.25814000     -4.16224000
 Ni     -0.68497100      1.62013000      0.54745400
 Ni     -3.41234000     -2.64400000      1.56172000
 Ni     -0.56607100     -1.99700000      3.99684000
 Ni     -3.84378000      1.24640000     -2.18795000
 Ni      1.10894000     -2.37748000      1.96850000
  C      2.56217000      4.18573000     -3.61455000
  O      2.46424000      5.26988000     -4.29668000
  C     -1.61655000      5.33795000     -2.02889000
  O     -1.76960000      6.57057000     -2.36119000
  C      5.77626000      0.76175500      0.76462500
  O      6.89942000      0.41691300      1.29226000
  C      1.78540000     -0.50082200     -5.03619000
  O      2.05977000     -0.93013700     -6.31649000
  C      3.82886000      3.33240000     -3.82466000
  O      4.95867000      3.96729000     -3.98837000
  C     -2.16958000     -2.35656000      4.99840000
  O     -2.25723000     -2.87604000      6.17440000
  C     -4.21458000     -2.76204000     -3.50245000
  O     -4.99991000     -2.85605000     -4.54454000
  C     -3.84220000      3.12857000     -3.10947000
  O     -4.74766000      3.54060000     -3.92204000
  C     -3.06945000     -1.09167000     -5.15437000
  O     -3.90727000     -1.27350000     -6.11442000
  C     -4.19966000     -3.74980000     -0.33528100
  O     -5.13582000     -4.39743000     -0.94416800
  C     -2.81618000      2.21036000      4.80243000
  O     -2.82735000      3.11574000      5.69109000
  C      3.25904000      4.51692000      0.72201300
  O      3.13388000      5.71578000      0.35231000
  C     -0.02538620     -6.14606000      2.12167000
  O     -0.65294500     -7.05386000      2.77116000
  C      5.21645000     -1.58211000     -0.76337500
  O      6.41289000     -1.58559000     -0.28979800
  C     -3.55198000     -3.46515000      3.22996000
  O     -4.33399000     -4.44220000      3.54355000
  C     -0.89210100     -2.67533000     -4.61737000
  O     -0.93263700     -3.06061000     -5.93553000
  C      6.21424000      0.92221500     -0.87383500
  O      7.46275000      0.69557800     -1.08976000
  C      4.34723000      3.53699000     -0.03076380
  O      5.40778000      4.25522000     -0.01171900
  C      1.87727000     -2.15878000      5.22584000
  O      2.86078000     -2.79623000      5.85787000
  C      3.39450000     -3.08330000      3.04463000
  O      4.36209000     -3.64325000      3.67611000
  C     -0.91678600     -5.93863000     -0.33958100
  O     -0.86274300     -7.20267000     -0.09047160
  C      5.39535000      1.37473000     -2.03497000
  O      5.96860000      1.40240000     -3.19324000
  C     -4.02416000      0.83234500     -4.24840000
  O     -4.95917000      0.80706800     -5.14348000
  C     -4.94620000      1.68151000     -0.02585840
  O     -6.19176000      1.86330000      0.32949100
  C      0.35236900     -3.92150000      3.93229000
  O     -0.01513920     -4.85321000      4.73709000
  C      3.67643000      1.84834000     -4.39340000
  O      4.37517000      1.87752000     -5.45841000
  C     -0.58088500      3.52825000      4.51055000
  O     -0.42129300      4.32492000      5.45052000
  C     -3.51452000     -4.45986000      0.89708000
  O     -3.63293000     -5.64809000      1.37338000
  C     -1.92166000     -5.10138000     -1.06950000
  O     -2.89422000     -5.77108000     -1.59637000
  C      1.40437000     -6.05188000      2.28858000
  O      2.06191000     -6.83194000      3.07021000
  C     -0.60051900      0.56119400     -5.60928000
  O     -0.38585100      0.24870700     -6.90817000
  C      3.18106000      4.04363000      2.22043000
  O      3.83158000      4.92107000      2.87798000
  C      2.06829000     -4.01395000      3.68525000
  O      2.68441000     -4.95762000      4.31189000
  C     -3.61963000     -2.47632000      4.44545000
  O     -4.71208000     -2.28702000      5.10074000
  C      4.79841000     -2.34668000     -1.95292000
  O      5.69034000     -2.90071000     -2.70408000
  C      2.71799000     -5.18369000      1.20858000
  O      3.69159000     -6.01987000      1.53331000
