110
Energy = -12176.00962474 au
 Ni      0.07588850     -3.44426000     -2.16541000
 Ni     -1.44636000     -0.18073300     -1.20547000
 Ni      0.57820300     -4.35186000      0.48380600
 Ni     -0.29795000      4.35895000     -0.11870500
 Ni     -1.30439000      2.29392000     -2.05141000
 Ni     -3.45377000      0.55200200      0.84650400
 Ni     -1.03834000     -0.83494600      1.38200000
 Ni     -0.07073450      3.69372000      2.52451000
 Ni      0.28301000     -0.96058900     -3.27896000
 Ni      3.17978000     -0.48502300     -0.66547400
 Ni      0.77828000     -1.60546000     -0.51703800
 Ni      2.38649000     -2.32276000     -2.58418000
 Ni      3.66929000      1.86748000     -1.32966000
 Ni      1.67054000     -0.22729500      4.12895000
 Ni      1.37480000      0.31164300      1.27338000
 Ni      2.81945000      0.12639700     -3.20007000
 Ni      1.29515000      3.37050000     -1.93750000
 Ni     -2.27813000     -1.89705000     -3.22237000
 Ni      3.42015000     -1.03827000      1.90195000
 Ni     -1.63070000     -2.74025000     -0.28665200
 Ni      3.98341000      1.62414000      1.18216000
 Ni      0.97937100      0.88620100     -1.32123000
 Ni     -2.22313000      0.45507300     -3.84002000
 Ni     -3.80923000     -1.21867000     -1.03713000
 Ni      2.14064000      2.21797000      2.93217000
 Ni     -0.37183300      1.07854000      3.27432000
 Ni      2.87363000     -3.23471000      0.28687800
 Ni     -1.54052000     -3.70411000      2.37472000
 Ni     -2.95038000      2.89360000      0.01697520
 Ni      1.85673000      2.89227000      0.42980500
 Ni     -2.47594000      2.53601000      2.68435000
 Ni     -2.83875000     -0.23541600      3.30113000
 Ni      0.27991100      1.75847000     -3.89072000
 Ni     -0.71699300      1.70887000      0.65064500
 Ni     -3.38203000     -2.24284000      1.59256000
 Ni     -0.64629300     -1.59147000      3.74277000
 Ni     -3.88006000      1.36557000     -2.11937000
 Ni      1.01623000     -2.37420000      2.03866000
  C     -2.44551000      2.92022000     -4.67429000
  O     -2.93455000      3.44846000     -5.77785000
  C     -3.20801000     -4.38060000      1.35526000
  O     -3.99480000     -5.49256000      1.32255000
  C     -5.04881000      0.44474200      2.21063000
  O     -5.85076000      1.16695000      2.89328000
  C     -0.15326300      4.02404000      4.45257000
  O      0.55015600      4.70513000      5.31627000
  C     -1.52632000      3.73719000      4.89397000
  O     -2.20407000      4.55864000      5.70757000
  C      2.77795000      4.13298000      2.67625000
  O      3.73765000      4.96913000      3.06242000
  C     -5.41753000     -0.39838000      1.10087000
  O     -6.62576000     -0.53911500      0.72376300
  C     -3.16793000     -2.34530000      4.60776000
  O     -4.25565000     -2.19999000      5.26548000
  C      2.77080000      0.38499300      5.65180000
  O      2.64165000      0.26843000      6.93895000
  C      4.56299000      1.07288000      3.58455000
  O      5.87617000      1.26731000      3.80480000
  C     -2.30677000      2.47352000      4.75778000
  O     -3.51964000      2.46488000      5.35236000
  C      2.00327000      5.70989000      1.08358000
  O      2.27132000      6.55615000      2.00761000
  C      2.78688000      4.81334000      0.04533070
  O      3.74547000      5.58958000     -0.31616200
  C     -5.73045000      1.62574000     -1.35911000
  O     -6.90438000      1.57173000     -1.87632000
  C      3.92908000      1.03940000      5.15221000
  O      4.68741000      1.57207000      6.04341000
  C      2.21793000     -5.56883000     -1.60325000
  O      2.91483000     -6.12429000     -2.53334000
  C      1.76481000     -6.34695000     -0.23738100
  O      1.37619000     -7.58483000     -0.41583100
  C      3.34781000     -4.79864000      1.37836000
  O      4.25444000     -5.09681000      2.24109000
  C     -2.81099000     -3.62227000      3.65657000
  O     -3.39503000     -4.60917000      4.25754000
  C     -1.52105000      1.30398000      5.43828000
  O     -1.41460000      1.72502000      6.64706000
  C     -5.32723000      2.06877000     -0.02908940
  O     -6.31010000      2.40518000      0.73632200
  C     -2.33672000      4.82751000      2.41242000
  O     -2.86105000      5.83375000      3.02191000
  C     -0.15525800      0.34446400      5.66645000
  O      0.63372800      0.80210700      6.54611000
  C      1.96828000     -1.87970000     -4.66087000
  O      2.08972000     -2.38631000     -5.83682000
  C      2.36339000     -6.01189000      1.07169000
  O      2.29972000     -7.00570000      1.91354000
  C     -0.84037900     -1.14779000      6.30597000
  O     -0.96077000     -0.85330300      7.55487000
  C     -1.92283000     -2.18991000      5.68494000
  O     -2.07891000     -3.17716000      6.51041000
  C     -3.44215000      2.52781000     -3.64278000
  O     -4.51678000      3.14124000     -3.99528000
  C     -3.98287000     -0.79355400     -3.84037000
  O     -4.96705000     -1.02341000     -4.76058000
  C      5.05964000      0.46968700     -2.75591000
  O      6.01539000      0.39023700     -3.61113000
  C     -1.42020000     -1.47977000     -5.15133000
  O     -1.45783000     -1.92831000     -6.38745000
  C      5.44211000      0.56772000     -1.29646000
  O      6.62625000      0.45878200     -0.82011500
  C      0.42250700     -4.73368000      2.72795000
  O      0.85176700     -5.69827000      3.56873000
  C     -0.93553900      3.02600000     -4.65458000
  O     -0.43982700      3.90455000     -5.45827000
  C      4.82137000      3.26432000      0.55726800
  O      5.52703000      4.23255000      1.01888000
  C      0.76154800      5.86675000      0.29248800
  O      1.03161000      7.02261000     -0.22195400
