110
Energy = -11721.75326772 au
 Ni      0.14992900     -3.59480000     -2.36151000
 Ni     -1.41681000     -0.21705700     -1.16943000
 Ni      0.54843600     -4.20437000      0.29985100
 Ni     -0.60036800      4.25329000     -0.32328900
 Ni     -1.25113000      2.41965000     -2.00992000
 Ni     -3.18503000      0.54083100      0.66461500
 Ni     -0.98606400     -0.87771900      1.31229000
 Ni      0.06755040      3.69071000      2.35189000
 Ni      0.32508300     -0.97885700     -3.12555000
 Ni      3.04732000     -0.45937300     -0.67399100
 Ni      0.68617300     -1.64222000     -0.54593600
 Ni      2.39155000     -2.45313000     -2.42774000
 Ni      3.64253000      2.11994000     -1.57047000
 Ni      1.96509000     -0.34427000      3.65013000
 Ni      1.41098000      0.24777500      1.18180000
 Ni      2.67789000      0.44208500     -3.33136000
 Ni      1.23339000      3.46500000     -2.31247000
 Ni     -2.10715000     -2.02462000     -2.89896000
 Ni      3.71013000     -1.16350000      2.08420000
 Ni     -1.74898000     -2.90577000     -0.42570200
 Ni      4.00885000      1.42813000      0.83484500
 Ni      0.96581700      0.93720800     -1.33509000
 Ni     -1.94656000      0.41859600     -3.68437000
 Ni     -3.95990000     -1.47263000     -0.96822600
 Ni      2.01406000      2.15933000      2.88983000
 Ni     -0.30119500      1.07019000      3.12818000
 Ni      2.87031000     -3.01836000      0.22261600
 Ni     -1.19613000     -3.42445000      2.09590000
 Ni     -2.93857000      3.15762000     -0.22659500
 Ni      1.75696000      2.86604000      0.30489600
 Ni     -2.40840000      2.42809000      2.54721000
 Ni     -2.66941000     -0.10025800      3.33481000
 Ni      0.41873500      1.61190000     -3.86938000
 Ni     -0.72808400      1.69117000      0.55287200
 Ni     -3.39004000     -2.26325000      1.40250000
 Ni     -0.56876600     -1.55422000      3.84177000
 Ni     -3.78610000      1.12440000     -1.74538000
 Ni      1.23568000     -2.34614000      1.99432000
  C     -0.94461900      3.96922000      4.72573000
  O     -0.57207700      4.72771000      5.72475000
  C     -3.83456000     -4.40557000      1.19991000
  O     -4.64365000     -5.23836000      1.62516000
  C      3.63781000      1.83345000     -4.61346000
  O      3.78446000      2.07615000     -5.86288000
  C     -2.21039000      5.66920000     -1.38594000
  O     -3.04501000      6.62897000     -1.40355000
  C     -4.56178000     -3.62147000     -0.57455300
  O     -5.56945000     -4.34509000     -0.80286900
  C     -5.62221000      0.19030300     -0.49533900
  O     -6.95636000      0.35991700     -0.27987200
  C      4.33966000      0.04008870      4.33638000
  O      4.81797000      0.57650100      5.39889000
  C      0.94166100      4.82683000     -4.10933000
  O      0.40856700      5.75896000     -4.76980000
  C      5.93045000      1.04764000      0.14089100
  O      7.17650000      0.85027600      0.54428500
  C      2.05295000      4.09484000     -4.46447000
  O      2.86338000      4.28160000     -5.42589000
  C     -2.11559000     -3.04265000      4.94094000
  O     -2.59518000     -3.47832000      6.05541000
  C     -5.75441000      2.59433000     -1.90588000
  O     -6.99779000      2.64220000     -1.57344000
  C     -0.70537300      6.37246000     -1.70371000
  O     -1.10448000      7.08984000     -2.72523000
  C      0.61863800      6.64396000     -1.07481000
  O      1.55443000      7.49108000     -1.02613000
  C      1.06067000     -3.75358000     -4.55924000
  O      0.94560500     -4.31870000     -5.69835000
  C      2.20133000     -5.10191000     -2.38841000
  O      2.64379000     -6.20019000     -2.89471000
  C      1.09430000     -5.08421000      2.52915000
  O      1.60444000     -6.07116000      3.14437000
  C      4.24287000      3.91102000     -0.00707438
  O      5.30640000      4.62610000      0.19712800
  C     -4.09493000     -1.52899000      4.59454000
  O     -4.62355000     -1.86900000      5.72076000
  C     -3.37576000     -4.68276000     -0.18196300
  O     -3.16729000     -5.81664000     -0.76192200
  C     -2.71009000      4.38114000     -2.54131000
  O     -3.75647000      4.70519000     -3.11651000
  C     -2.58811000      1.72546000      4.94383000
  O     -2.73946000      2.15440000      6.16826000
  C      5.64393000      1.12520000     -1.25531000
  O      6.60080000      0.84101600     -2.07980000
  C      2.96526000      4.82111000     -0.13393500
  O      3.15760000      6.04469000      0.00931913
  C      2.09240000      5.01561000      2.49224000
  O      3.22831000      5.53210000      2.86085000
  C      4.17273000      2.69556000     -3.57074000
  O      4.95861000      3.69182000     -3.97492000
  C      1.08982000      5.78277000      1.85374000
  O      1.20984000      7.05083000      1.60988000
  C      5.20880000     -0.58347900      3.42952000
  O      6.49253000     -0.67708300      3.66559000
  C      0.01566450      2.51023000      4.93861000
  O      0.33840600      2.49041000      6.25351000
  C     -2.36548000      4.26526000      4.35016000
  O     -3.04654000      4.94782000      5.15788000
  C     -4.12565000     -0.59526000     -4.30282000
  O     -5.01133000     -0.66663600     -5.23640000
  C     -0.90459000      3.15466000     -4.92219000
  O     -0.81936800      3.67147000     -6.04916000
  C      0.96293000     -0.88299500     -5.43699000
  O      0.91948300     -1.51152000     -6.56116000
  C      3.48586000     -3.63097000      2.54007000
  O      4.03883000     -4.59460000      3.31943000
  C     -5.06876000      2.56029000      0.87655300
  O     -6.28950000      2.94747000      1.01132000
  C     -1.55398000      4.00634000     -3.97797000
  O     -1.84355000      5.17408000     -4.40077000
