110
Energy = -12201.89412918 au
 Ni     -0.06752260     -3.58254000     -2.24685000
 Ni     -1.36133000     -0.26406100     -1.17775000
 Ni      0.72110400     -4.79062000      0.29209000
 Ni     -0.76038500      4.30791000     -0.40342100
 Ni     -1.13559000      2.50714000     -2.09153000
 Ni     -3.22685000      0.63109500      0.78864100
 Ni     -1.02370000     -0.92254700      1.36674000
 Ni     -0.26298700      3.72978000      2.32014000
 Ni      0.39545500     -1.06648000     -3.25580000
 Ni      3.13932000     -0.50646900     -0.66895700
 Ni      0.74190100     -1.71624000     -0.51760000
 Ni      2.36425000     -2.45751000     -2.53089000
 Ni      3.38748000      1.92841000     -1.40585000
 Ni      1.93668000     -0.17025800      3.88785000
 Ni      1.37141000      0.27468700      1.21715000
 Ni      2.56278000      0.16149400     -3.28805000
 Ni      1.35410000      3.53273000     -2.16044000
 Ni     -1.92593000     -2.30180000     -3.16713000
 Ni      3.44590000     -1.15133000      1.82188000
 Ni     -1.70374000     -2.97507000     -0.34859100
 Ni      3.94460000      1.30676000      1.11844000
 Ni      0.93214800      0.89972900     -1.33893000
 Ni     -1.75405000      0.35841900     -3.62618000
 Ni     -3.64392000     -1.34351000     -1.05919000
 Ni      2.39527000      2.29049000      3.02530000
 Ni     -0.29001600      0.99743000      3.23920000
 Ni      2.88643000     -3.42977000      0.17132000
 Ni     -1.36173000     -3.85134000      2.27549000
 Ni     -3.19014000      3.25536000      0.11547400
 Ni      1.69579000      2.91279000      0.43684400
 Ni     -2.37611000      2.37159000      2.72305000
 Ni     -2.97558000     -0.00405533      3.50011000
 Ni      0.72317600      1.53761000     -4.01881000
 Ni     -0.77815100      1.70649000      0.55570700
 Ni     -3.54243000     -1.91091000      1.72823000
 Ni     -0.76098400     -1.74237000      3.89721000
 Ni     -3.65076000      1.33712000     -1.64707000
 Ni      1.18494000     -2.48241000      2.04548000
  C      4.25366000      1.32523000      3.74350000
  O      5.16191000      1.68605000      4.61662000
  C      3.36378000     -4.74945000      1.88163000
  O      4.58145000     -4.98771000      2.04726000
  C     -2.22604000      5.80107000      1.81923000
  O     -2.49626000      7.05601000      1.96986000
  C      2.39197000     -5.69386000      1.09930000
  O      2.56109000     -6.86162000      1.55428000
  C      2.32429000      5.03318000     -0.77985100
  O      3.01113000      6.11647000     -0.82275000
  C      0.92033900     -0.31533000     -5.39072000
  O      1.66420000     -0.32297900     -6.41851000
  C     -1.26193000      5.25506000      2.82350000
  O     -1.13617000      6.05288000      3.82799000
  C      0.79044900     -6.69927000     -0.46918900
  O      1.50318000     -7.75191000     -0.64945000
  C      5.46649000      0.73925300     -0.46056300
  O      6.74690000      0.61277200     -0.54347100
  C     -1.33908000     -2.35480000     -5.03744000
  O     -1.82813000     -3.27051000     -5.81811000
  C     -3.01766000      5.07255000      0.74446300
  O     -3.94772000      5.92016000      0.44576700
  C      3.23081000      4.15494000      3.45470000
  O      3.65464000      4.94812000      4.37620000
  C     -1.40600000      5.07786000     -2.28441000
  O     -1.96067000      6.23084000     -2.50416000
  C     -5.01684000     -0.30774200      3.13710000
  O     -5.95354000      0.30945400      3.78648000
  C      1.60527000     -2.78677000     -4.58457000
  O      1.92370000     -3.09951000     -5.78187000
  C     -5.02740000      1.85316000      0.79786300
  O     -6.28612000      1.82520000      1.20939000
  C      2.32262000     -4.22793000      3.04540000
  O      2.94572000     -4.27217000      4.18918000
  C     -2.78214000     -5.03726000     -0.68849000
  O     -3.92733000     -5.54476000     -0.90609600
  C     -1.76023000     -1.90874000      5.92917000
  O     -2.36538000     -2.84393000      6.56921000
  C      3.35979000      4.24127000      2.03509000
  O      4.15003000      5.12033000      1.51668000
  C      0.24846500      0.76733700      5.37003000
  O      0.03349040      1.32746000      6.51242000
  C      0.91192300     -5.05019000      3.20336000
  O      1.09600000     -6.30627000      3.28279000
  C     -5.43389000     -1.31807000      2.14603000
  O     -6.64387000     -1.61806000      1.84809000
  C     -5.32836000      2.96655000     -1.14304000
  O     -6.58709000      3.15257000     -0.98021900
  C     -0.56686100     -6.41473000     -0.67342500
  O     -1.52296000     -7.15244000     -1.11480000
  C     -2.89602000     -3.39773000      3.80403000
  O     -3.45400000     -4.16722000      4.68725000
  C     -1.99580000     -4.74638000     -2.11865000
  O     -2.45254000     -5.66502000     -2.90810000
  C      2.70976000     -5.14874000     -1.24486000
  O      3.34252000     -6.28943000     -1.40647000
  C     -2.19627000     -5.15460000      0.77725900
  O     -2.61933000     -6.23804000      1.29023000
  C     -2.71771000      1.03274000      5.14424000
  O     -2.96980000      0.72818100      6.37831000
  C     -0.37736900     -1.39445000     -5.72356000
  O     -0.27677500     -1.52531000     -7.00660000
  C      3.50200000     -0.79787700      5.44935000
  O      4.45565000     -0.22033900      6.09509000
  C     -1.31359000      4.19531000     -3.46037000
  O     -1.52843000      4.54221000     -4.66020000
  C     -0.29889500     -4.44108000      3.90365000
  O     -0.44979500     -5.03801000      5.03792000
  C     -2.24701000      2.40090000      4.77082000
  O     -1.99170000      3.29789000      5.65844000
  C      2.51359000      2.95564000     -4.32045000
  O      3.08109000      3.55300000     -5.30956000
