110
Energy = -12479.51987893 au
 Ni     -0.05841410     -3.56591000     -2.46967000
 Ni     -1.37921000     -0.23965700     -1.25558000
 Ni      0.51276200     -4.64397000      0.24198700
 Ni     -0.51237200      4.24469000     -0.37274400
 Ni     -1.23373000      2.59530000     -2.12905000
 Ni     -3.39507000      0.52889500      0.73610200
 Ni     -0.93409200     -0.97150300      1.28244000
 Ni      0.17266100      3.66076000      2.16242000
 Ni      0.40133100     -1.06901000     -3.20459000
 Ni      3.54781000     -0.45847400     -0.64070600
 Ni      0.86079500     -1.71782000     -0.58776600
 Ni      2.86237000     -2.46444000     -2.59190000
 Ni      3.39076000      2.21755000     -1.30054000
 Ni      2.05451000     -0.46531200      3.90312000
 Ni      1.58030000      0.23788400      1.18255000
 Ni      2.94175000      0.12353100     -3.11782000
 Ni      1.22311000      3.51167000     -2.21447000
 Ni     -2.36882000     -1.95580000     -3.15434000
 Ni      3.70273000     -1.19548000      1.99783000
 Ni     -1.66063000     -3.00989000     -0.37987100
 Ni      4.17078000      1.46421000      1.21474000
 Ni      1.02920000      0.89580000     -1.39159000
 Ni     -1.85174000      0.59489500     -3.65419000
 Ni     -3.67296000     -1.47404000     -0.89805700
 Ni      2.40228000      2.19977000      3.27536000
 Ni     -0.07146330      0.99514300      3.04320000
 Ni      3.16033000     -3.20133000      0.11821900
 Ni     -1.12830000     -3.69876000      2.47598000
 Ni     -2.97317000      3.14568000     -0.32744200
 Ni      1.84042000      2.92328000      0.49280500
 Ni     -2.32131000      2.36445000      2.26949000
 Ni     -2.59487000     -0.21685900      3.07766000
 Ni      0.57138300      1.66544000     -3.84382000
 Ni     -0.72911400      1.65767000      0.42693000
 Ni     -3.25777000     -2.51798000      1.71773000
 Ni     -0.72306200     -1.76902000      3.94313000
 Ni     -3.73966000      1.22690000     -1.71185000
 Ni      1.33849000     -2.44444000      2.17701000
  C      3.80729000     -3.31144000      2.30175000
  O      4.49529000     -4.18487000      3.07708000
  C      2.12608000     -3.04096000      4.20558000
  O      2.44311000     -4.26336000      4.46513000
  C     -2.15995000     -3.09005000      4.63026000
  O     -2.12977000     -3.55018000      5.83595000
  C      2.18767000      3.43746000     -4.88919000
  O      2.30765000      3.39809000     -6.19085000
  C     -3.28379000     -3.30046000      3.58106000
  O     -4.33494000     -3.93302000      3.97818000
  C     -5.30191000      0.96054900      0.59447600
  O     -6.26402000      0.54218800      1.33387000
  C      1.03932000      5.22543000      1.39273000
  O      1.61686000      6.36290000      1.81022000
  C      0.15007800     -3.52688000     -4.38436000
  O     -0.28237100     -4.29983000     -5.32031000
  C     -4.57144000     -0.76809000     -4.02804000
  O     -5.61046000     -0.14419800     -4.42934000
  C      5.59316000      0.13950300     -0.75064700
  O      6.63795000     -0.21635400     -1.42589000
  C      4.12024000      3.51954000      0.32897000
  O      4.92497000      4.35309000     -0.32834500
  C     -0.01412980     -4.58967000      3.77478000
  O      0.00218514     -4.72011000      5.05331000
  C      2.01055000     -5.62416000     -0.50902000
  O      2.17345000     -6.87212000     -0.81637800
  C      4.18946000      4.14585000      1.82826000
  O      5.20853000      4.82836000      2.10821000
  C      3.11778000      3.94908000      2.86667000
  O      3.07620000      4.88796000      3.75360000
  C      0.88935800      4.36890000     -4.78768000
  O      0.89838100      5.26750000     -5.72743000
  C     -1.84382000      2.54291000     -4.43562000
  O     -2.47178000      3.35096000     -5.28874000
  C      1.49365000      2.16212000      4.98175000
  O      1.59713000      2.85743000      6.07737000
  C      0.52495800     -5.27607000      2.54675000
  O      1.05941000     -6.43805000      2.68706000
  C     -4.00279000     -2.05024000     -4.21969000
  O     -4.46886000     -3.02004000     -4.94654000
  C      4.74857000     -1.88931000     -2.09857000
  O      5.78293000     -2.63435000     -1.89949000
  C      0.98310900     -2.34242000     -5.00888000
  O      0.75207100     -1.81565000     -6.19885000
  C      3.17367000      3.32194000     -3.75457000
  O      4.33635000      3.60090000     -4.24169000
  C      4.82039000     -0.65124400     -3.05336000
  O      5.76788000     -0.19958000     -3.77517000
  C      5.22296000     -3.34282000      0.47874200
  O      6.25160000     -3.88933000     -0.04730590
  C      2.52023000     -2.25376000     -4.88517000
  O      3.40665000     -2.44696000     -5.88620000
  C      5.85631000      0.97054200      0.42419600
  O      7.02618000      1.28236000      0.86884100
  C     -3.48296000      4.56524000     -1.47037000
  O     -4.64760000      5.10512000     -1.65395000
  C      3.87880000     -2.82934000     -4.39868000
  O      5.16416000     -3.03114000     -4.39986000
  C     -1.09246000     -5.23352000     -0.89968400
  O     -1.76086000     -6.41307000     -1.01657000
  C      2.58222000     -2.00085000      5.10419000
  O      3.15439000     -2.06080000      6.25170000
  C     -2.21912000      5.03349000     -2.07729000
  O     -2.43260000      6.04236000     -2.84948000
  C      0.04320120      4.52977000     -3.53584000
  O     -0.48725300      5.71120000     -3.72467000
  C     -5.34315000      1.94952000     -0.53990100
  O     -6.38778000      2.66267000     -0.80263400
  C     -4.00709000     -3.83857000      0.49259800
  O     -4.79733000     -4.87294000      0.68923800
  C      4.23752000      0.83451600      3.22898000
  O      5.32985000      0.98929000      4.07796000
