110
Energy = -12547.32738467 au
 Ni     -0.05785470     -3.83909000     -2.28792000
 Ni     -1.32185000     -0.26289600     -1.28361000
 Ni      0.40328600     -4.40062000      0.14558200
 Ni     -0.47185800      4.69637000     -0.21252000
 Ni     -1.18824000      2.52616000     -1.95494000
 Ni     -3.15843000      0.60967800      0.94270200
 Ni     -1.00664000     -0.93124800      1.31877000
 Ni     -0.29522600      3.68233000      2.43273000
 Ni      0.35051500     -1.32009000     -3.37322000
 Ni      3.22034000     -0.57553900     -0.74243200
 Ni      0.69967000     -1.77300000     -0.65270400
 Ni      2.52554000     -2.89951000     -2.53358000
 Ni      3.29030000      1.95506000     -1.69917000
 Ni      1.67884000     -0.39926200      3.67091000
 Ni      1.38409000      0.19243400      1.13784000
 Ni      2.75523000      0.03434190     -3.52328000
 Ni      1.16647000      3.48739000     -2.14607000
 Ni     -2.19873000     -2.19886000     -3.19228000
 Ni      3.99850000     -0.97702300      2.08994000
 Ni     -1.78157000     -2.97611000     -0.44822700
 Ni      3.66953000      1.38642000      0.95060400
 Ni      0.98467200      0.88754400     -1.32747000
 Ni     -2.02951000      0.27693900     -3.82398000
 Ni     -3.66608000     -1.35563000     -1.09117000
 Ni      1.80530000      2.13108000      2.97929000
 Ni     -0.51485800      1.10378000      2.97926000
 Ni      2.75578000     -3.21930000     -0.08868900
 Ni     -1.13800000     -3.34980000      2.26436000
 Ni     -2.81699000      3.54946000      0.09849210
 Ni      1.51013000      2.98742000      0.48937000
 Ni     -3.09740000      2.42390000      2.71839000
 Ni     -2.87760000      0.00415988      3.35629000
 Ni      0.48513500      1.39452000     -3.79834000
 Ni     -0.82562800      1.79876000      0.53137400
 Ni     -3.44903000     -2.40922000      1.58242000
 Ni     -0.70665600     -1.31129000      3.98125000
 Ni     -3.43238000      1.21133000     -1.74872000
 Ni      1.28513000     -2.48905000      2.08387000
  C     -3.93957000     -4.18852000      1.01320000
  O     -4.76339000     -4.98058000      1.61546000
  C      3.59097000      1.49155000     -4.56217000
  O      4.39986000      1.55448000     -5.54749000
  C     -0.08574930      0.46949400      5.68016000
  O      0.48078500     -0.10324800      6.69748000
  C     -0.72665400     -5.90879000     -0.27395200
  O     -1.12777000     -6.83947000      0.52062200
  C     -3.65522000      0.07976450     -4.72400000
  O     -4.07474000      0.41189000     -5.89342000
  C     -3.86249000     -2.27532000     -4.00851000
  O     -4.41198000     -3.13836000     -4.79074000
  C     -1.28090000      6.06920000      1.33224000
  O     -0.87291300      7.28613000      1.23726000
  C      1.49924000      5.13281000      1.43126000
  O      2.09787000      5.85508000      2.30831000
  C     -1.73902000      5.36863000     -1.90823000
  O     -1.36871000      6.56116000     -2.21133000
  C      2.34445000     -5.31290000     -1.22755000
  O      2.43348000     -6.57394000     -0.99403200
  C      1.76671000     -3.50621000      3.69988000
  O      2.39044000     -4.61564000      3.87153000
  C     -4.54143000      3.25950000      1.60697000
  O     -5.81122000      3.56900000      1.87205000
  C      0.62592100     -0.25329900     -5.18752000
  O      0.72814000     -0.49657100     -6.53358000
  C     -2.77131000      5.29231000      1.51531000
  O     -3.93330000      5.83508000      1.43615000
  C     -3.28049000      3.02158000      4.53117000
  O     -4.41978000      3.17327000      5.11926000
  C     -3.22985000     -3.26469000      3.43048000
  O     -3.95253000     -4.03065000      4.22138000
  C      3.01455000      3.69321000     -3.20216000
  O      3.58526000      4.36044000     -4.17382000
  C     -4.27987000      1.08916000      2.99438000
  O     -5.53306000      1.13348000      3.42397000
  C      5.41110000     -1.14364000      3.42926000
  O      6.22589000     -2.03376000      3.89885000
  C      5.42183000     -0.37108500      0.72254500
  O      6.74818000     -0.42874000      0.67298200
  C     -3.27667000      4.69691000     -1.67054000
  O     -4.45351000      5.21540000     -1.71092000
  C      4.51058000     -2.13180000     -1.49446000
  O      5.84661000     -2.29915000     -1.62644000
  C     -0.91371800     -5.61265000     -1.71882000
  O     -1.56487000     -6.37897000     -2.53045000
  C     -2.29669000      4.12468000     -2.88025000
  O     -2.48643000      4.04509000     -4.15248000
  C     -3.15787000     -4.42223000     -0.21482800
  O     -3.36563000     -5.46759000     -0.94635100
  C     -0.25681700     -3.26549000     -4.28056000
  O      0.03764230     -3.92620000     -5.44950000
  C      2.52057000     -2.40968000     -4.46295000
  O      2.75555000     -3.07917000     -5.57946000
  C     -1.59485000      0.06409850      5.24375000
  O     -2.38409000      0.01933240      6.26506000
  C      0.44751900      1.97977000      5.32565000
  O      1.33208000      2.27774000      6.22215000
  C     -2.00564000      3.01352000      5.27284000
  O     -1.96558000      2.91809000      6.56746000
  C      5.14158000      0.23648900      3.56958000
  O      5.45540000      1.33826000      4.14716000
  C      2.83824000     -4.75487000     -2.53625000
  O      3.39892000     -5.35554000     -3.53233000
  C      1.30336000      5.53022000     -0.04656410
  O      1.85698000      6.44731000     -0.76696300
  C     -1.68805000      5.26082000      2.74385000
  O     -1.80059000      5.68692000      3.95837000
  C     -0.44244700      3.21634000      4.71728000
  O      0.02043570      4.37476000      5.08500000
  C     -4.60216000     -0.94495900     -4.11030000
  O     -5.88079000     -0.79710100     -4.01042000
