#B3LYP/6-31+G(d) OPT FREQ

110, Energy = -12228.42570758 au

0 1
 Ni      0.15028200     -3.87229000     -2.23267000
 Ni     -1.43890000     -0.25973300     -1.17888000
 Ni      0.67521000     -4.59857000      0.36235700
 Ni     -0.66785000      4.82494000     -0.17754500
 Ni     -1.38737000      2.45464000     -1.97937000
 Ni     -3.21092000      0.61770400      0.64928600
 Ni     -0.95911900     -0.95344300      1.32243000
 Ni     -0.06793380      3.52316000      2.52485000
 Ni      0.22672100     -1.04511000     -2.95816000
 Ni      3.37280000     -0.64308500     -0.61223400
 Ni      0.76522100     -1.77273000     -0.51770300
 Ni      2.63815000     -2.69178000     -2.47447000
 Ni      3.25909000      1.96002000     -1.38837000
 Ni      1.77712000     -0.58971900      3.90269000
 Ni      1.37086000      0.20084300      1.29415000
 Ni      2.57148000      0.07778210     -3.09962000
 Ni      1.09619000      3.39391000     -1.95258000
 Ni     -2.12762000     -2.35764000     -2.90316000
 Ni      3.56886000     -1.41779000      1.83966000
 Ni     -1.62024000     -3.17456000     -0.51708000
 Ni      3.70542000      1.27779000      1.10046000
 Ni      0.90640000      0.86083700     -1.25523000
 Ni     -2.12928000      0.32035100     -3.77419000
 Ni     -3.79631000     -1.36115000     -1.31369000
 Ni      2.11563000      2.39128000      3.18728000
 Ni     -0.29270800      1.03279000      3.42690000
 Ni      3.06110000     -3.23690000     -0.04752010
 Ni     -1.07278000     -3.71460000      1.90948000
 Ni     -3.07930000      3.29193000      0.20022300
 Ni      1.59897000      2.83197000      0.60060700
 Ni     -2.49313000      2.48739000      2.47895000
 Ni     -2.59582000     -0.15944300      3.11670000
 Ni      0.19508100      1.72557000     -3.87176000
 Ni     -0.78520800      1.70790000      0.58170100
 Ni     -3.31016000     -2.31561000      1.30319000
 Ni     -0.39015900     -1.64340000      3.99348000
 Ni     -3.69525000      0.99628100     -2.06791000
 Ni      1.27186000     -2.48604000      2.09576000
  C     -2.92700000      0.07215730     -5.94812000
  O     -4.05223000     -0.18886200     -6.51958000
  C      2.01620000     -5.60171000     -2.30347000
  O      1.89635000     -6.47984000     -3.24238000
  C     -1.18099000      5.92625000     -1.62226000
  O     -1.16110000      7.20896000     -1.71932000
  C     -2.06483000      5.07369000     -2.48947000
  O     -3.15624000      5.67866000     -2.83679000
  C     -4.78885000      2.18966000      1.24499000
  O     -6.08603000      2.32838000      1.47343000
  C      0.22209800      0.55733300      5.31270000
  O      0.52921000      0.73019200      6.54886000
  C      2.89564000      4.14650000      2.40228000
  O      3.62279000      5.14411000      2.82604000
  C      1.26294000     -5.21239000      2.19994000
  O      1.09273000     -6.44636000      2.54183000
  C      5.33327000     -1.94014000      0.24081300
  O      6.35022000     -2.72776000      0.18938400
  C     -3.30020000      5.11113000      0.85104700
  O     -4.38179000      5.67640000      1.27235000
  C     -1.47661000     -5.91740000      2.03266000
  O     -1.81807000     -7.01358000      2.59320000
  C     -2.21019000     -5.25801000     -2.08388000
  O     -3.01955000     -6.21851000     -1.72705000
  C     -1.97835000      5.77067000      0.87573100
  O     -1.80399000      6.95932000      1.35571000
  C      0.99684300     -2.67023000      5.00274000
  O      1.21706000     -3.62839000      5.86041000
  C     -2.01308000      3.74846000     -3.77403000
  O     -3.15072000      4.04084000     -4.32639000
  C     -1.02283000      3.36043000      4.88084000
  O     -1.74667000      4.26377000      5.44426000
  C     -1.89215000     -5.52534000      0.67314700
  O     -2.78790000     -6.36247000      0.23434400
  C     -0.80446000     -5.53696000     -2.54674000
  O     -0.95630800     -6.57883000     -3.28123000
  C     -4.37500000     -4.09329000      0.63645600
  O     -5.10484000     -4.71990000     -0.22054200
  C      5.49957000     -0.54355300     -0.29693700
  O      6.61229000     -0.03567360     -0.67554700
  C     -2.90360000     -4.11947000     -2.86882000
  O     -3.66388000     -4.76706000     -3.67714000
  C      0.42131600      4.04906000      4.83316000
  O      0.51777500      5.23353000      5.33812000
  C      3.12375000     -4.52887000     -2.47864000
  O      4.13770000     -5.11435000     -3.01639000
  C      1.17103000      5.91549000     -0.08437710
  O      1.35826000      7.16064000      0.13814300
  C      1.46596000     -5.84092000     -0.86745900
  O      1.66524000     -7.09895000     -0.68268900
  C     -4.03117000     -4.54161000      1.92485000
  O     -4.21683000     -5.64410000      2.54177000
  C     -3.60857000      4.16132000      3.63820000
  O     -3.81124000      5.43366000      3.64123000
  C      3.83980000     -5.27157000      0.14850900
  O      4.34352000     -6.11574000     -0.66518300
  C      1.53117000      2.98239000      4.91523000
  O      1.86902000      2.86366000      6.14829000
  C     -4.89267000     -1.12010000     -3.22304000
  O     -5.78240000     -1.83890000     -3.80754000
  C     -4.66191000      0.27154800     -3.76977000
  O     -5.33860000      0.78354200     -4.74220000
  C      4.82735000     -2.33666000     -2.67673000
  O      5.81680000     -2.95114000     -3.18789000
  C     -0.98794200      1.78624000      5.20801000
  O     -1.80375000      1.55966000      6.17438000
  C      2.10699000     -4.32952000      3.13735000
  O      2.56870000     -4.96409000      4.16137000
  C     -0.96343800      3.08525000     -4.68085000
  O     -1.02370000      3.46612000     -5.91083000
  C      3.10757000     -2.74623000      3.60507000
  O      3.82077000     -3.08811000      4.61448000

