110
Energy = -11848.69563640 au
 Ni      0.16351300     -3.62193000     -2.46288000
 Ni     -1.42511000     -0.24059000     -1.17277000
 Ni      0.55839800     -4.14160000      0.14643600
 Ni     -0.33657000      4.34034000     -0.19855000
 Ni     -1.17479000      2.25390000     -1.90962000
 Ni     -3.22415000      0.52838100      0.72412300
 Ni     -1.00039000     -0.91396600      1.30425000
 Ni     -0.00961275      3.65443000      2.29883000
 Ni      0.40346400     -1.02690000     -3.13070000
 Ni      3.24750000     -0.49625400     -0.82449800
 Ni      0.75286600     -1.64816000     -0.57236300
 Ni      2.66776000     -2.35096000     -2.69623000
 Ni      3.59473000      2.14766000     -1.67933000
 Ni      1.88878000     -0.46306600      3.73932000
 Ni      1.38510000      0.23395000      1.14989000
 Ni      2.82798000      0.09145970     -3.33875000
 Ni      1.35047000      3.39724000     -2.27221000
 Ni     -2.08706000     -2.15763000     -2.90476000
 Ni      3.47304000     -1.14197000      1.79874000
 Ni     -1.78006000     -2.88347000     -0.45353800
 Ni      3.84690000      1.31685000      0.94553400
 Ni      1.01047000      0.89155300     -1.33252000
 Ni     -1.71297000      0.34960600     -3.78196000
 Ni     -3.88724000     -1.29545000     -0.95497000
 Ni      2.08424000      2.04284000      2.90711000
 Ni     -0.32968300      0.94888900      3.00180000
 Ni      3.15314000     -3.04408000     -0.04250490
 Ni     -1.29891000     -3.52667000      2.13197000
 Ni     -3.11908000      2.98376000     -0.14451900
 Ni      1.74473000      2.94456000      0.40875000
 Ni     -2.68372000      2.43627000      2.34660000
 Ni     -2.63107000     -0.17831800      3.25591000
 Ni      0.67265800      1.54436000     -3.98236000
 Ni     -0.74713200      1.66681000      0.55557900
 Ni     -3.42240000     -2.16285000      1.41713000
 Ni     -0.59513100     -1.73095000      3.94765000
 Ni     -3.76773000      1.29170000     -1.85943000
 Ni      1.11073000     -2.34092000      2.05114000
  C      1.78622000     -5.42252000     -2.02405000
  O      2.20024000     -6.53192000     -2.53372000
  C      0.44884900     -3.42182000     -4.66682000
  O      0.48133300     -4.01656000     -5.77612000
  C     -2.66850000     -4.49429000     -2.85718000
  O     -3.50135000     -5.39689000     -3.23071000
  C     -1.19751000     -0.49562200     -5.88104000
  O     -1.60019000     -1.12712000     -6.92024000
  C     -1.93905000      0.24294300      5.56055000
  O     -2.28194000      0.62044300      6.74025000
  C     -5.71089000      1.34382000      0.64329000
  O     -6.97805000      1.23735000      0.87682300
  C      0.75954500      6.29587000      1.46785000
  O      0.55573300      7.37692000      2.12809000
  C      3.44271000     -4.51276000      1.91634000
  O      4.13267000     -5.47690000      2.42313000
  C      2.05515000      3.81513000     -4.36870000
  O      2.36430000      4.82939000     -5.09428000
  C     -5.58692000      2.47554000     -0.62890100
  O     -6.35987000      3.51027000     -0.46181900
  C      4.99527000     -0.58369000     -2.64206000
  O      6.17115000     -0.19202200     -2.97624000
  C      3.19088000      2.83048000     -4.60516000
  O      3.50222000      2.58469000     -5.83240000
  C     -5.69574000     -0.56104500      0.06689690
  O     -6.94722000     -1.02657000      0.10064900
  C     -3.38498000     -4.41133000     -0.38191200
  O     -4.19122000     -5.20847000     -0.98243900
  C      3.78877000      4.32934000     -0.76621800
  O      4.63540000      5.27221000     -0.71361100
  C      4.22365000      2.70990000     -3.49837000
  O      5.21836000      3.40737000     -3.92588000
  C     -5.92939000      1.44848000     -1.66804000
  O     -7.17449000      1.21156000     -1.84339000
  C      2.24234000      5.07773000      1.30421000
  O      3.08958000      5.95969000      0.91709900
  C     -3.49634000     -4.85660000      1.10024000
  O     -3.33625000     -6.05313000      1.56990000
  C      5.63465000      0.83435200     -0.42649800
  O      7.00783000      0.67317900     -0.47472900
  C     -2.70613000      4.76366000      2.86918000
  O     -3.46425000      5.69996000      3.32854000
  C      1.61420000      5.32831000      2.68044000
  O      2.16689000      5.87182000      3.69431000
  C     -1.94333000     -2.35684000      5.65601000
  O     -2.16500000     -2.65986000      6.88456000
  C     -0.06570380      0.35686500     -5.97352000
  O      0.47348500      0.46109400     -7.13901000
  C     -3.86934000      3.54437000     -2.60810000
  O     -4.51708000      4.31926000     -3.40844000
  C      1.24231000     -3.38480000      4.47081000
  O      2.02107000     -3.77725000      5.40982000
  C      2.67314000     -2.46053000     -4.80265000
  O      2.97200000     -3.33877000     -5.69286000
  C      0.57558200      6.26691000     -0.05075870
  O      1.27510000      7.24750000     -0.49547900
  C     -4.86076000      2.14727000      1.70475000
  O     -5.81787000      2.67235000      2.38121000
  C      3.94105000      0.62573700      4.57719000
  O      4.82290000      0.62703600      5.51775000
  C      4.98243000     -2.87840000     -1.01881000
  O      6.15812000     -3.28086000     -0.68596500
  C     -4.70468000     -3.99150000      1.41513000
  O     -5.81008000     -4.58690000      1.15542000
  C      0.33931200     -4.38789000      3.89635000
  O      0.37217900     -5.57896000      4.35798000
  C      2.18557000     -1.12419000     -5.23046000
  O      2.09545000     -1.00111000     -6.50975000
  C      5.03625000     -2.14265000     -2.38335000
  O      5.81679000     -2.63584000     -3.30383000
  C     -2.81895000     -2.84870000      4.65508000
  O     -3.80302000     -3.60029000      4.99874000
