110
Energy = -11926.77889640 au
 Ni      0.08136180     -3.74905000     -2.52333000
 Ni     -1.38945000     -0.27503700     -1.15154000
 Ni      0.56594900     -4.42423000      0.16663400
 Ni     -0.51774000      4.20376000     -0.11250300
 Ni     -1.08514000      2.28823000     -1.97128000
 Ni     -3.23971000      0.49541000      0.72494300
 Ni     -0.97774600     -0.90609000      1.30655000
 Ni     -0.10424300      3.76218000      2.48743000
 Ni      0.35403600     -0.97848900     -3.13431000
 Ni      3.09395000     -0.51300000     -0.69025700
 Ni      0.71033000     -1.68865000     -0.55652300
 Ni      2.43931000     -2.42727000     -2.58874000
 Ni      3.38214000      2.22091000     -1.56307000
 Ni      1.86748000     -0.29084200      3.96461000
 Ni      1.38204000      0.24007400      1.23090000
 Ni      2.73639000      0.22290500     -3.39226000
 Ni      1.32257000      3.41536000     -2.36957000
 Ni     -2.16274000     -2.28212000     -2.85587000
 Ni      3.58341000     -1.13679000      1.78763000
 Ni     -1.68750000     -2.98659000     -0.45608600
 Ni      3.72216000      1.52578000      1.07649000
 Ni      0.98784700      0.89503900     -1.32672000
 Ni     -1.77680000      0.37942300     -3.62330000
 Ni     -3.83505000     -1.39714000     -1.11936000
 Ni      2.13198000      2.21910000      3.03596000
 Ni     -0.30277200      1.13830000      3.16394000
 Ni      2.77577000     -3.18231000      0.03674760
 Ni     -1.01982000     -3.56055000      2.13822000
 Ni     -2.83072000      3.04615000      0.04232530
 Ni      1.68760000      2.95024000      0.49926400
 Ni     -2.48854000      2.59064000      2.66482000
 Ni     -2.66039000     -0.21190500      3.23077000
 Ni      0.66577800      1.61074000     -4.06601000
 Ni     -0.72969600      1.64352000      0.60072300
 Ni     -3.57481000     -1.88918000      1.55898000
 Ni     -0.47196900     -1.61129000      3.77270000
 Ni     -3.51469000      1.09361000     -1.81206000
 Ni      1.21865000     -2.39538000      2.04871000
  C     -1.11220000     -6.06947000      0.87543900
  O     -1.64146000     -7.19792000      0.55983300
  C      0.83404000     -4.79713000      3.33665000
  O      0.34374500     -5.84340000      3.93094000
  C     -1.97097000      2.53635000      4.77368000
  O     -2.60692000      2.60681000      5.89630000
  C     -3.39985000     -2.48539000      4.24000000
  O     -4.11342000     -3.02930000      5.16830000
  C     -5.14499000     -0.98751200     -3.11394000
  O     -6.19849000     -1.33354000     -3.77208000
  C     -1.24722000      5.34269000      3.12967000
  O     -1.18698000      6.54446000      3.59824000
  C      0.94411700      1.75954000      5.52048000
  O      1.05177000      2.48454000      6.58305000
  C      1.46230000      0.39640100      5.84731000
  O      1.67416000      0.07019530      7.06750000
  C      1.19485000     -5.78905000     -1.86819000
  O      1.16261000     -7.00363000     -2.47218000
  C      3.89621000      4.02152000      0.25399800
  O      4.47782000      5.14075000      0.51502000
  C      3.96211000      3.41483000     -3.25081000
  O      4.98235000      3.67472000     -4.01448000
  C     -2.27672000     -4.98640000     -1.05479000
  O     -3.11202000     -5.91935000     -0.76340300
  C     -2.32700000      5.61618000      0.85740400
  O     -2.63574000      6.92174000      0.86506700
  C      2.77030000      3.80811000     -4.09523000
  O      2.65378000      4.99491000     -4.59834000
  C      4.76938000     -1.85538000     -3.08176000
  O      5.95266000     -2.31764000     -3.30448000
  C     -0.60278000      3.67406000     -4.39856000
  O     -0.98119300      4.44072000     -5.33279000
  C      3.69443000      1.32734000     -4.91744000
  O      4.73525000      1.42945000     -5.67031000
  C      4.04502000      3.68604000      2.74253000
  O      5.19561000      4.20754000      2.96322000
  C      2.48202000     -5.40527000     -1.31425000
  O      3.44566000     -6.25920000     -1.51162000
  C     -5.56948000     -1.29427000      1.85168000
  O     -6.61264000     -1.63193000      2.53508000
  C      1.83244000      5.13736000      1.67764000
  O      1.98467000      6.37899000      1.41836000
  C      0.28229900     -3.88427000     -4.63408000
  O     -0.24174800     -4.47340000     -5.65050000
  C     -2.41003000     -4.96234000     -2.59495000
  O     -2.21625000     -5.92851000     -3.42573000
  C     -3.57193000     -3.97061000     -2.63495000
  O     -4.64759000     -4.67023000     -2.70436000
  C      2.87942000      4.68865000      2.72740000
  O      3.15751000      5.63305000      3.58545000
  C     -0.51266000      3.01233000      4.86088000
  O     -0.25561100      3.97586000      5.67849000
  C      2.69391000      2.46763000     -5.11321000
  O      2.69968000      2.96826000     -6.31728000
  C     -5.60813000     -0.20107600      0.91752200
  O     -6.70355000      0.41442800      0.64636200
  C      3.87342000      0.69559800      4.70953000
  O      4.69996000      0.65773000      5.68446000
  C      1.89148000     -4.97669000      2.21190000
  O      2.73619000     -5.78186000      2.75378000
  C      5.63339000     -1.14201000      0.48596700
  O      6.88784000     -1.43887000      0.46678500
  C     -4.87105000      2.33988000      2.01444000
  O     -6.04134000      2.59842000      2.46062000
  C      1.55203000     -3.20535000     -4.68382000
  O      2.19092000     -3.19935000     -5.80301000
  C      1.13470000     -0.36795800     -5.46118000
  O      1.21627000     -0.72821100     -6.67451000
  C     -2.57481000      5.17483000      2.42610000
  O     -3.70049000      5.54546000      2.93156000
  C      1.32938000     -3.57257000      4.11463000
  O      2.11686000     -4.08522000      4.98895000
