110
Energy = -12325.50556189 au
 Ni     -0.10826300     -3.70944000     -2.36368000
 Ni     -1.29995000     -0.34299300     -1.19545000
 Ni      0.34009200     -4.84473000      0.43495100
 Ni     -0.39466800      4.36347000     -0.19058000
 Ni     -1.19250000      2.67205000     -2.12660000
 Ni     -2.96639000      0.40493600      0.71668700
 Ni     -0.93786800     -1.05705000      1.40380000
 Ni     -0.17253100      3.72757000      2.62916000
 Ni      0.34049300     -1.12548000     -3.44032000
 Ni      3.38096000     -0.40006700     -0.75590700
 Ni      0.80299100     -1.75533000     -0.51853500
 Ni      2.47685000     -2.63609000     -2.40763000
 Ni      3.56705000      2.51759000     -1.43781000
 Ni      2.11147000     -0.30255500      3.86631000
 Ni      1.44198000      0.27360400      1.19183000
 Ni      2.64859000      0.43387000     -3.55039000
 Ni      1.46581000      3.65325000     -1.97263000
 Ni     -2.05662000     -2.49785000     -3.14068000
 Ni      3.61215000     -1.03087000      1.90537000
 Ni     -1.62862000     -3.02689000     -0.43313800
 Ni      4.18321000      1.28555000      0.98538600
 Ni      1.02521000      0.93509300     -1.41939000
 Ni     -1.65878000      0.36538400     -3.65509000
 Ni     -3.68939000     -1.64577000     -0.96286300
 Ni      2.00490000      2.21111000      3.26492000
 Ni     -0.32463800      0.96948100      3.29402000
 Ni      2.80884000     -3.38623000      0.15524400
 Ni     -1.29072000     -3.76614000      2.19138000
 Ni     -2.76460000      3.26137000     -0.04289240
 Ni      1.78259000      2.98531000      0.47096800
 Ni     -2.37731000      2.29742000      2.39775000
 Ni     -2.70866000     -0.56832900      3.28396000
 Ni      0.46001000      1.70638000     -3.95034000
 Ni     -0.65358600      1.73804000      0.50204900
 Ni     -3.34889000     -2.44401000      1.53060000
 Ni     -0.75919300     -2.09711000      4.20926000
 Ni     -3.39730000      1.16400000     -1.73126000
 Ni      1.27298000     -2.48602000      2.14650000
  C     -0.22100100      2.30129000      4.70947000
  O     -0.48894900      2.21388000      6.02375000
  C      3.16846000      0.66814700     -5.43359000
  O      4.08743000      1.31210000     -6.05019000
  C      3.78372000      3.54072000     -3.01408000
  O      4.70736000      4.45879000     -2.97739000
  C      0.62546100     -0.79147800     -5.25143000
  O      0.45376500     -1.76535000     -6.08756000
  C      3.02759000      0.67047100      5.41805000
  O      4.11565000      0.29781600      6.00246000
  C      5.21893000     -0.38424200     -1.01411000
  O      6.22611000     -1.12243000     -1.40671000
  C      0.34008000      3.41827000     -4.76264000
  O     -0.64541500      4.00238000     -5.35880000
  C      1.46654000      4.05891000      4.31080000
  O      1.41007000      4.27682000      5.58711000
  C      1.60473000      4.13912000     -4.90200000
  O      1.94142000      5.19760000     -5.56344000
  C     -1.55331000      5.43063000      2.46015000
  O     -1.76443000      5.76455000      3.68064000
  C     -2.00922000     -4.21888000     -2.13227000
  O     -2.64389000     -5.33898000     -2.33295000
  C     -1.92944000     -5.43164000      0.69829500
  O     -2.95349000     -6.19682000      0.90208400
  C      2.96589000     -4.57062000     -2.31733000
  O      3.66850000     -5.29541000     -3.11220000
  C      1.12102000     -3.19752000      4.51545000
  O      0.99686200     -3.82009000      5.65333000
  C      4.48136000      0.76522100      3.06369000
  O      5.59623000      0.95934300      3.77032000
  C     -0.90682300     -6.05395000     -0.23433400
  O     -0.71599900     -7.04526000     -1.02927000
  C     -2.48007000      3.63104000     -3.55368000
  O     -3.34915000      3.54334000     -4.49803000
  C      5.67002000      0.82320700     -0.07099060
  O      6.74273000      1.45266000     -0.36705500
  C      1.81325000     -5.92390000      1.21651000
  O      2.17263000     -7.07667000      1.67425000
  C     -1.60776000      4.59075000     -3.00910000
  O     -1.26531000      5.81897000     -3.18143000
  C     -2.72235000      5.56275000     -0.63720100
  O     -3.19321000      6.16823000     -1.64350000
  C     -2.79701000     -2.29408000      4.10259000
  O     -3.64386000     -2.58851000      5.08101000
  C      2.17931000     -3.54987000      3.58204000
  O      3.16258000     -4.35457000      3.78330000
  C      2.77858000      4.11751000     -0.71120600
  O      3.29172000      5.24670000     -0.35817400
  C     -0.77567400     -2.65874000      6.10100000
  O     -1.76018000     -3.32367000      6.60406000
  C      4.07455000     -4.60476000      1.09741000
  O      4.58919000     -5.16868000      2.12367000
  C     -4.65951000     -3.59576000     -0.26486900
  O     -5.15325000     -4.28580000     -1.23286000
  C      3.02528000      3.61033000     -4.34084000
  O      3.71264000      3.54056000     -5.38498000
  C     -2.70704000      5.67442000      0.88516100
  O     -3.86450000      6.08916000      1.36836000
  C     -1.06289000     -3.13412000     -4.56656000
  O     -1.48544000     -3.46008000     -5.86328000
  C     -1.13374000      6.21694000      1.19040000
  O     -0.63154300      7.37842000      0.93092000
  C      3.10826000     -5.55310000      0.39923800
  O      3.49066000     -6.36140000     -0.56425100
  C     -4.50089000     -3.94683000      1.13707000
  O     -4.92062000     -4.89221000      1.90659000
  C      0.36016300     -5.75647000      2.82433000
  O      0.78237300     -6.84437000      3.36254000
  C     -0.66285700     -4.95016000      3.48995000
  O     -1.09233000     -5.20428000      4.68278000
  C      1.78545000      0.17553900     -5.83501000
  O      1.73088000     -0.04730260     -7.12423000
