#B3LYP/6-31+G(d) OPT FREQ

110, Energy = -10019.60959998 au

0 1
 Ni      0.07260040     -3.47211000     -2.23616000
 Ni     -1.36641000     -0.22847700     -1.15861000
 Ni      0.47946000     -4.16718000      0.22615000
 Ni     -0.48644900      4.16055000     -0.22615100
 Ni     -1.13586000      2.23311000     -1.90195000
 Ni     -3.02653000      0.49468200      0.65285400
 Ni     -0.94582800     -0.86139800      1.28445000
 Ni     -0.07300330      3.46623000      2.23033000
 Ni      0.29422100     -0.95893800     -2.97527000
 Ni      3.02464000     -0.49302000     -0.65259900
 Ni      0.71327700     -1.60817000     -0.53141200
 Ni      2.40387000     -2.32047000     -2.37824000
 Ni      3.28326000      1.98883000     -1.43209000
 Ni      1.81695000     -0.41472800      3.63829000
 Ni      1.36624000      0.22822800      1.15862000
 Ni      2.63346000      0.15923300     -3.13989000
 Ni      1.18435000      3.36583000     -2.05788000
 Ni     -2.04133000     -2.06981000     -2.87941000
 Ni      3.49030000     -1.13537000      1.81171000
 Ni     -1.59188000     -2.69817000     -0.41077200
 Ni      3.71532000      1.33809000      1.05736000
 Ni      0.94597600      0.86119400     -1.28449000
 Ni     -1.81963000      0.40666700     -3.63770000
 Ni     -3.72201000     -1.34625000     -1.05933000
 Ni      2.03952000      2.07319000      2.88195000
 Ni     -0.29307200      0.95522700      2.96847000
 Ni      2.80504000     -2.98886000      0.09233790
 Ni     -1.17284000     -3.37099000      2.05086000
 Ni     -2.81123000      2.99144000     -0.09499490
 Ni      1.58529000      2.68986000      0.40963000
 Ni     -2.40427000      2.32055000      2.37695000
 Ni     -2.63779000     -0.15674200      3.13503000
 Ni      0.52957800      1.52172000     -3.75996000
 Ni     -0.71356700      1.60793000      0.53134200
 Ni     -3.28235000     -1.98163000      1.42491000
 Ni     -0.52354400     -1.52448000      3.76255000
 Ni     -3.49532000      1.13397000     -1.80223000
 Ni      1.13889000     -2.23701000      1.90533000
  C     -0.94279200      3.29303000     -4.93283000
  O     -1.40103000      4.18666000     -5.73573000
  C      2.29604000      4.50481000     -3.93866000
  O      2.93756000      5.18077000     -4.90090000
  C     -2.83671000     -5.04844000      0.21384000
  O     -3.50833000     -6.12972000      0.09376330
  C     -0.86749500     -6.17910000     -0.19223600
  O     -1.57621000     -7.30599000     -0.38036000
  C      2.60337000     -2.34144000      5.04342000
  O      3.08381000     -3.18537000      5.85745000
  C     -1.34330000     -5.57049000     -2.21944000
  O     -1.94309000     -6.65139000     -2.45525000
  C     -5.81713000     -0.93437200     -2.62927000
  O     -6.82978000     -1.07164000     -3.40722000
  C      3.22007000      2.71983000     -4.50479000
  O      3.89386000      3.29195000     -5.43035000
  C      5.38659000     -0.89819000     -1.56721000
  O      6.63141000     -1.09371000     -1.82347000
  C      2.93389000      4.47883000      2.89588000
  O      3.62981000      5.51433000      3.13441000
  C     -0.79179900      6.21302000     -1.78611000
  O     -1.24340000      7.11506000     -2.57072000
  C      5.30570000      2.35097000     -3.21486000
  O      5.99171000      2.93850000     -4.12443000
  C      0.51480000     -6.95134000      1.04363000
  O      0.96643600     -7.88236000      1.81651000
  C      2.86673000     -5.23133000      1.62251000
  O      3.34828000     -6.11690000      2.41876000
  C      5.39140000      0.41851700      3.14299000
  O      6.36381000      0.57966300      3.96850000
  C     -2.05684000     -2.93314000      5.20804000
  O     -2.71612000     -3.54164000      6.12934000
  C      4.03518000      3.98937000     -3.04954000
  O      4.72648000      4.62710000     -3.91167000
  C     -3.72274000      0.38150100     -5.27588000
  O     -4.67106000      0.24539200     -6.12007000
  C      1.29744000     -1.13759000     -5.48123000
  O      1.40811000     -1.52396000     -6.70256000
  C     -3.86471000      4.34986000     -1.97896000
  O     -4.37823000      5.22341000     -2.75208000
  C     -2.64565000      5.83697000     -1.03753000
  O     -3.16394000      6.74311000     -1.77914000
  C      0.45526900     -3.34094000     -4.86591000
  O      0.56994400     -3.73925000     -6.08302000
  C     -0.63886400     -5.15644000      3.74627000
  O     -0.22949400     -6.03379000      4.57368000
  C     -3.00656000     -4.60814000     -1.70812000
  O     -3.68658000     -5.72045000     -1.92295000
  C     -1.84326000      4.57112000     -2.99115000
  O     -2.32270000      5.45999000     -3.78646000
  C      3.52816000     -3.23738000      3.46999000
  O      4.05021000     -4.11512000      4.22499000
  C      1.84102000     -6.01850000     -0.89107100
  O      2.36761000     -7.13059000     -1.26529000
  C     -5.55787000      1.89274000      0.02203240
  O     -6.79770000      2.09065000      0.28677900
  C      1.72722000     -4.13303000      3.54161000
  O      2.22188000     -5.04969000      4.36002000
  C      0.79351400     -3.24747000      5.08379000
  O      1.19224000     -4.12606000      5.90730000
  C     -5.32403000     -0.54045000      2.89163000
  O     -6.56638000     -0.34814900      3.16117000
  C     -4.46626000     -1.09799000     -4.10111000
  O     -5.44633000     -1.29387000     -4.91581000
  C      1.64388000      5.45466000      1.78706000
  O      2.25247000      6.56904000      1.95443000
  C     -6.13640000      0.52529100     -1.35113000
  O     -7.38304000      0.66736600     -1.13763000
  C     -4.67610000     -3.57612000     -1.86466000
  O     -5.40058000     -4.61040000     -2.04572000
  C      0.81070700     -5.56984000      2.47074000
  O      1.29796000     -6.50035000      3.25123000

