#B3LYP/6-31+G(d) OPT FREQ

110, Energy = -12120.62468765 au

0 1
 Ni     -0.00476783     -3.43256000     -2.42649000
 Ni     -1.42629000     -0.23741100     -1.20126000
 Ni      0.64859400     -4.20187000      0.34748600
 Ni     -0.22935400      4.36753000     -0.15917300
 Ni     -1.08148000      2.22097000     -1.93665000
 Ni     -3.34411000      0.52022200      0.70875800
 Ni     -1.00229000     -0.84967300      1.29121000
 Ni      0.12124900      3.51291000      2.38957000
 Ni      0.28839000     -1.03908000     -3.08456000
 Ni      3.39666000     -0.53583200     -0.71475300
 Ni      0.82679900     -1.64426000     -0.55090200
 Ni      2.38772000     -2.65689000     -2.72405000
 Ni      3.66644000      2.01249000     -1.59601000
 Ni      2.08128000     -0.21388200      3.73437000
 Ni      1.49393000      0.23411800      1.21287000
 Ni      2.73656000      0.34412700     -3.31424000
 Ni      1.59284000      3.69361000     -2.09477000
 Ni     -2.43388000     -2.31235000     -3.06055000
 Ni      3.79244000     -1.14966000      1.89682000
 Ni     -1.62997000     -2.71245000     -0.48800500
 Ni      4.14268000      1.30749000      1.32390000
 Ni      1.05956000      0.89432700     -1.30489000
 Ni     -2.05252000      0.27820000     -3.69763000
 Ni     -3.87315000     -1.26334000     -1.18741000
 Ni      2.21329000      2.40689000      3.17950000
 Ni     -0.20713200      1.02206000      3.03305000
 Ni      2.94323000     -3.54639000      0.14401700
 Ni     -1.37061000     -3.30194000      2.14692000
 Ni     -2.80295000      2.95667000     -0.14049800
 Ni      1.73057000      2.76933000      0.49945900
 Ni     -2.39514000      2.27883000      2.38763000
 Ni     -2.94843000     -0.27724700      3.22859000
 Ni      0.75360900      1.62295000     -3.85028000
 Ni     -0.68075800      1.63619000      0.54797600
 Ni     -3.52092000     -1.96182000      1.43655000
 Ni     -0.52828900     -1.46790000      3.75485000
 Ni     -3.96428000      1.06091000     -1.90899000
 Ni      1.28379000     -2.37289000      1.96818000
  C      1.90835000      2.34061000      5.32049000
  O      2.42857000      2.57830000      6.47312000
  C     -4.68380000     -2.50126000      3.99385000
  O     -5.53138000     -2.78303000      4.91127000
  C      1.83186000      5.39866000      1.69819000
  O      2.26824000      6.59593000      1.88490000
  C      0.65479400      3.01745000      4.84907000
  O      0.02618830      3.76860000      5.68160000
  C     -3.43231000     -3.20897000      3.77022000
  O     -3.30963000     -4.16170000      4.62321000
  C      2.11543000     -4.53950000      2.07498000
  O      2.59180000     -5.50230000      2.94361000
  C      2.65747000      1.99500000     -4.87548000
  O      2.91478000      2.15089000     -6.13778000
  C     -3.29429000     -0.73767400      5.57218000
  O     -4.07301000     -1.43366000      6.32671000
  C      5.98577000     -1.69679000      2.21555000
  O      7.05271000     -2.05626000      2.83283000
  C     -2.62180000     -4.32921000     -2.69898000
  O     -3.47418000     -5.28064000     -3.08511000
  C     -5.64685000      1.49248000     -0.78710600
  O     -6.86153000      1.70315000     -0.93365800
  C      2.78662000     -4.95259000     -2.23970000
  O      3.04868000     -5.78782000     -3.19133000
  C     -5.49794000     -1.41454000      3.22914000
  O     -6.45994000     -0.82475300      3.87375000
  C      1.02827000      6.00350000      0.10219700
  O      0.70910600      7.23185000      0.27982100
  C     -5.36648000     -0.12713800     -2.76237000
  O     -6.63237000     -0.06903320     -2.99119000
  C      2.91898000     -5.35845000     -0.84253500
  O      3.32247000     -6.54172000     -0.51727500
  C      5.30749000     -0.47033000     -1.49263000
  O      6.35841000     -1.25830000     -1.74735000
  C      2.62382000      4.38576000      2.55170000
  O      3.62193000      4.87450000      3.20870000
  C     -5.19475000      0.35943900      1.80403000
  O     -6.24664000      1.08301000      1.90470000
  C     -4.77065000     -0.58137800     -4.11564000
  O     -5.41093000      0.02534520     -5.10194000
  C      4.84954000     -4.59510000      0.85806400
  O      5.10297000     -5.53688000      1.69900000
  C      6.00827000      1.45398000      0.32464700
  O      7.15747000      0.93275000      0.31821900
  C      5.86078000     -1.50231000      0.82573700
  O      6.92236000     -1.85286000      0.17456200
  C      5.55825000      2.94281000     -2.55417000
  O      6.09782000      4.03995000     -3.03432000
  C      0.77806600     -2.98345000     -4.74669000
  O      0.23784100     -3.24324000     -5.88515000
  C      3.60239000      3.09823000     -4.26084000
  O      4.73599000      3.15672000     -4.87418000
  C      4.63398000      0.38914200      4.22560000
  O      5.50311000     -0.40701100      4.69475000
  C     -2.97313000      0.38306600     -5.95870000
  O     -3.91467000      0.12364600     -6.79983000
  C      3.39785000      0.82000300      5.05208000
  O      3.78568000      0.77744800      6.28953000
  C      5.00300000      1.27765000      3.02340000
  O      6.13578000      1.80812000      3.38490000
  C      2.24939000     -3.09167000     -4.62657000
  O      3.09702000     -3.45010000     -5.52382000
  C     -3.91575000     -1.81785000     -4.21304000
  O     -4.52630000     -2.58120000     -5.04673000
  C     -5.60965000     -1.12052000      1.66386000
  O     -6.73358000     -1.54429000      1.14114000
  C      2.98000000      4.17470000     -3.36774000
  O      3.41886000      5.28928000     -3.85191000
  C      1.84350000      5.53447000     -1.10401000
  O      2.78044000      6.37912000     -1.34202000
  C      5.36206000      0.78012800     -1.95492000
  O      6.33526000      1.38096000     -2.63943000

