#B3LYP/6-31+G(d) OPT FREQ

110, Energy = -12416.62454557 au

0 1
 Ni      0.44600400     -3.64072000     -2.07869000
 Ni     -1.41491000     -0.16021600     -1.23473000
 Ni      0.50678800     -4.75691000      0.50808400
 Ni     -0.73438800      4.27051000     -0.50681800
 Ni     -1.34828000      2.32875000     -2.08219000
 Ni     -3.14110000      0.44783000      0.69646400
 Ni     -1.00575000     -0.89758200      1.39679000
 Ni     -0.20599400      3.50623000      2.58118000
 Ni      0.34863700     -1.05269000     -3.21113000
 Ni      3.29763000     -0.67487200     -0.68672200
 Ni      0.84673800     -1.66065000     -0.48040500
 Ni      2.64298000     -2.53939000     -2.48437000
 Ni      3.39841000      1.92775000     -1.45566000
 Ni      2.05618000     -0.44872100      4.03783000
 Ni      1.44479000      0.14292300      1.30414000
 Ni      2.78916000      0.23580800     -3.33732000
 Ni      1.17441000      3.63736000     -2.34741000
 Ni     -2.18923000     -2.11167000     -2.99972000
 Ni      3.76193000     -1.44373000      1.80760000
 Ni     -1.54016000     -2.70369000     -0.34516600
 Ni      3.82820000      1.18378000      1.01670000
 Ni      0.99894400      0.95575800     -1.31466000
 Ni     -2.10257000      0.34033300     -3.80206000
 Ni     -3.77695000     -1.35486000     -1.19857000
 Ni      1.99436000      2.09540000      3.05054000
 Ni     -0.29248600      0.84275300      3.29711000
 Ni      2.86714000     -3.45156000     -0.09057800
 Ni     -1.45502000     -3.83712000      2.17820000
 Ni     -3.11378000      2.84604000     -0.00465401
 Ni      1.71398000      2.97985000      0.48916400
 Ni     -2.45217000      2.51023000      2.69850000
 Ni     -2.93803000      0.05998640      3.34909000
 Ni      0.78171100      1.56929000     -3.97087000
 Ni     -0.72802800      1.70713000      0.62801900
 Ni     -3.60510000     -1.99525000      1.82485000
 Ni     -0.42367100     -1.77917000      3.75968000
 Ni     -3.94362000      1.13087000     -1.99503000
 Ni      1.31658000     -2.55549000      2.06682000
  C      3.17829000     -3.33431000      3.93107000
  O      3.13860000     -4.57955000      4.27230000
  C      1.38713000     -6.70714000      0.72414600
  O      2.07589000     -7.50208000      1.47306000
  C      0.89651600     -4.79281000      2.61146000
  O      1.56834000     -5.87367000      2.86583000
  C      2.83542000      4.18445000      1.48510000
  O      3.40256000      5.34373000      1.35730000
  C      1.73043000      3.43026000     -4.45586000
  O      2.39988000      4.02633000     -5.42755000
  C      0.79153800      0.64711500      5.24626000
  O      1.16101000      0.83820400      6.46256000
  C      0.15995400     -4.00311000      3.79438000
  O      0.28328500     -4.42842000      5.00746000
  C      0.78680100     -6.69712000     -0.53905800
  O      0.63180300     -7.50886000     -1.52250000
  C     -2.16389000      1.56695000      4.65782000
  O     -2.84230000      1.96420000      5.67357000
  C     -4.20669000     -2.20507000     -3.41481000
  O     -5.09145000     -2.32340000     -4.36545000
  C      3.60642000      0.43229900      4.72853000
  O      4.41526000      0.27714700      5.72291000
  C     -0.55249000      1.79030000      5.44490000
  O     -0.80687800      1.78242000      6.71956000
  C     -2.33452000      4.57493000      2.40527000
  O     -2.92924000      5.63709000      2.90871000
  C     -4.95358000     -0.13308800      3.24808000
  O     -5.80317000      0.52204300      3.97269000
  C     -3.02905000     -4.99722000      1.34270000
  O     -4.27811000     -5.27505000      1.42412000
  C      4.56399000     -2.67668000     -1.76044000
  O      5.75738000     -3.05262000     -2.21021000
  C     -1.22680000      5.11862000     -3.30640000
  O     -1.50942000      5.73696000     -4.45723000
  C     -4.66107000      0.63894500     -3.93759000
  O     -5.93449000      0.49589700     -4.10251000
  C     -3.17600000     -3.43018000      3.38242000
  O     -3.94879000     -4.18846000      4.16740000
  C      0.36526200      5.20494000     -3.02809000
  O      0.84443800      6.26471000     -3.57325000
  C     -3.67106000      0.24925600     -4.94123000
  O     -3.77002000     -0.12836100     -6.17001000
  C      0.19694000     -1.26841000     -5.32608000
  O      0.69895400     -2.08662000     -6.16503000
  C      5.41997000     -1.05942000      0.84680900
  O      6.67168000     -1.45269000      0.78873500
  C     -5.31995000     -1.21309000      2.31516000
  O     -6.52273000     -1.58138000      2.00680000
  C      2.25102000     -4.86565000     -2.39809000
  O      2.35860000     -5.75566000     -3.33151000
  C     -5.14380000      2.29774000      0.12816000
  O     -5.98677000      2.66872000      1.03573000
  C     -5.58945000      1.64850000     -1.13573000
  O     -6.77576000      1.45529000     -1.60045000
  C      5.25178000      1.00917000     -1.08621000
  O      6.50964000      1.00361000     -1.48215000
  C     -2.04651000      3.75682000     -3.12261000
  O     -3.15915000      3.90141000     -3.75011000
  C      4.21924000     -2.88375000      2.91935000
  O      5.30183000     -3.53653000      3.15636000
  C      2.98282000     -5.09913000     -1.06575000
  O      3.61035000     -6.15937000     -0.68624900
  C      3.11578000      1.23337000     -4.99455000
  O      4.06498000      1.80363000     -5.67405000
  C     -0.06709230      3.09092000      4.58534000
  O     -0.11817900      4.00091000      5.49028000
  C     -1.82326000     -5.59464000      0.79541200
  O     -1.63166000     -6.78452000      0.33631300
  C     -1.47441000      5.53170000     -1.78485000
  O     -2.06680000      6.65817000     -1.64680000
  C      2.43610000     -2.23365000      4.70982000
  O      2.54037000     -2.62126000      5.93300000

