110
Energy = -12321.46360776 au
 Ni     -0.15846900     -3.57227000     -2.60752000
 Ni     -1.46271000     -0.28027900     -1.17994000
 Ni      0.19685500     -4.32470000      0.15590300
 Ni     -0.91457400      4.55635000     -0.34144200
 Ni     -1.29152000      2.55022000     -2.10364000
 Ni     -3.41874000      0.36822700      0.72465500
 Ni     -1.00429000     -1.01049000      1.38800000
 Ni     -0.12400300      3.92133000      2.14985000
 Ni      0.35253400     -1.11825000     -3.12061000
 Ni      3.25382000     -0.48746700     -0.75601200
 Ni      0.71815900     -1.72794000     -0.56572700
 Ni      2.55292000     -2.54886000     -2.62268000
 Ni      3.27076000      2.05620000     -1.80343000
 Ni      1.97667000     -0.40892600      3.70562000
 Ni      1.43144000      0.16396200      1.17510000
 Ni      3.04863000      0.09399780     -3.43277000
 Ni      0.98948200      3.49447000     -2.12391000
 Ni     -2.24334000     -2.28065000     -2.95474000
 Ni      3.79024000     -1.05834000      1.86575000
 Ni     -1.81787000     -2.97989000     -0.52687000
 Ni      3.82084000      1.43221000      1.19922000
 Ni      1.00486000      0.84471900     -1.40174000
 Ni     -2.02359000      0.24748800     -3.61570000
 Ni     -4.11682000     -1.22141000     -1.39681000
 Ni      2.12816000      2.44296000      2.78320000
 Ni     -0.37675200      0.88319800      3.14194000
 Ni      2.93112000     -2.93780000      0.03733960
 Ni     -1.28503000     -4.04721000      2.07168000
 Ni     -3.03095000      3.16703000     -0.30490200
 Ni      1.60336000      2.79885000      0.38770700
 Ni     -2.39050000      2.27894000      2.33879000
 Ni     -3.03682000     -0.21061500      3.74732000
 Ni      0.85504100      1.84448000     -4.03307000
 Ni     -0.73409400      1.66763000      0.48396900
 Ni     -3.32226000     -2.11086000      1.73088000
 Ni     -0.77051700     -1.53680000      4.03290000
 Ni     -4.13265000      1.29176000     -1.56465000
 Ni      1.15774000     -2.68489000      2.11663000
  C     -4.48309000     -1.77691000     -3.35173000
  O     -5.63227000     -2.32897000     -3.55709000
  C      5.08575000      0.16771400      2.92660000
  O      6.05952000     -0.01444150      3.74850000
  C     -3.49520000     -4.20467000      3.72949000
  O     -4.28890000     -5.15169000      4.16331000
  C      4.51554000     -3.33694000     -2.50225000
  O      5.23399000     -4.23292000     -3.07040000
  C      3.51184000      0.52310600      5.15735000
  O      4.38652000      0.00733824      5.95066000
  C     -1.59986000     -5.43007000      0.56971000
  O     -2.01431000     -6.60442000      0.93361500
  C     -3.55358000      4.06176000     -2.02948000
  O     -4.24789000      5.27374000     -2.24179000
  C     -5.53118000      2.68119000     -1.55179000
  O     -6.77774000      2.55563000     -1.28911000
  C      3.94837000      2.61948000     -4.08253000
  O      4.85665000      3.50831000     -3.86059000
  C     -1.94276000     -4.56732000     -1.93157000
  O     -2.83815000     -5.26891000     -2.56022000
  C     -1.42500000     -5.76250000     -0.98433300
  O     -1.03554000     -6.90521000     -1.36091000
  C      2.42983000      2.69280000     -4.54718000
  O      2.60458000      3.23234000     -5.70968000
  C     -1.86606000     -2.54369000      5.47038000
  O     -1.36572000     -2.51133000      6.66568000
  C     -0.74467200      3.12077000     -5.02906000
  O     -0.56545600      3.95382000     -5.99045000
  C     -3.97896000     -1.20890000     -4.74766000
  O     -4.53021000     -0.40524600     -5.59701000
  C      5.41380000     -2.19283000     -2.25159000
  O      6.67861000     -2.16881000     -2.05752000
  C     -3.19752000     -4.36610000      2.15300000
  O     -3.86580000     -5.34874000      1.64286000
  C      1.74427000     -4.18868000      3.11849000
  O      2.83111000     -4.66526000      3.60989000
  C      2.27374000      4.60595000      2.33298000
  O      2.20834000      5.86457000      2.59595000
  C      1.35940000     -3.11250000     -4.45538000
  O      2.06170000     -3.49545000     -5.46471000
  C     -1.09466000      4.56265000     -2.30479000
  O     -1.62148000      5.43181000     -3.09679000
  C      4.18978000      1.17115000     -4.54636000
  O      4.83627000      1.16735000     -5.65475000
  C     -4.85505000     -0.11715000      2.81609000
  O     -5.99100000      0.09788970      3.51132000
  C     -3.37993000     -1.86849000      5.23365000
  O     -3.98324000     -1.46927000      6.30721000
  C      4.76590000     -1.13543000     -3.18105000
  O      5.62008000     -1.26449000     -4.13843000
  C     -2.11226000     -3.90404000      4.61171000
  O     -2.02865000     -4.95854000      5.34738000
  C     -2.95642000     -2.20559000     -5.50859000
  O     -2.76841000     -2.89927000     -6.62340000
  C      0.38110000     -4.79412000      3.09592000
  O      0.25765600     -5.91625000      3.73140000
  C      5.13090000     -1.70501000     -0.01414940
  O      6.34790000     -1.51124000      0.48074500
  C     -1.22018000      5.50408000      2.22423000
  O     -1.63853000      6.21951000      3.21771000
  C     -4.03556000     -2.58778000      3.88206000
  O     -5.32959000     -2.63791000      4.01094000
  C      3.59505000      3.87192000      2.19449000
  O      4.78683000      4.34573000      2.24577000
  C     -5.11594000      0.12248400     -0.51975300
  O     -6.38123000      0.26424400     -0.28132200
  C     -1.83337000      0.40194000      5.07341000
  O     -2.20870000      0.72735000      6.35417000
  C     -0.19285700     -3.10103000     -4.65164000
  O     -0.67333900     -3.42142000     -5.80330000
  C     -1.59875000      5.89049000      0.85291900
  O     -2.42734000      6.82954000      0.53532100
