110
Energy = -12268.21603727 au
 Ni      0.06914920     -3.76339000     -2.34739000
 Ni     -1.48020000     -0.22741000     -1.23682000
 Ni      0.44831400     -4.25844000      0.24978700
 Ni     -0.41945600      4.25819000     -0.12241900
 Ni     -1.37801000      2.40578000     -2.06320000
 Ni     -3.24863000      0.58048900      0.78064500
 Ni     -0.98633400     -0.86026300      1.26753000
 Ni     -0.20297500      3.74440000      2.56409000
 Ni      0.24691900     -1.05205000     -3.18814000
 Ni      3.19207000     -0.56711000     -0.71152400
 Ni      0.71999400     -1.68216000     -0.60020000
 Ni      2.58312000     -2.56577000     -2.37641000
 Ni      3.53335000      1.88485000     -1.42870000
 Ni      2.08520000     -0.34879000      3.69226000
 Ni      1.42961000      0.23879900      1.16876000
 Ni      2.94770000      0.07921050     -3.25829000
 Ni      1.45617000      3.63795000     -2.14028000
 Ni     -2.12317000     -2.34388000     -3.04563000
 Ni      3.79628000     -1.01812000      1.92351000
 Ni     -1.70899000     -3.03078000     -0.51366000
 Ni      3.98831000      1.21246000      1.00266000
 Ni      0.95853300      0.92450100     -1.36880000
 Ni     -2.19476000      0.48701200     -3.76045000
 Ni     -3.86556000     -1.43632000     -1.42910000
 Ni      2.27161000      2.00341000      3.00941000
 Ni     -0.35771100      1.12279000      3.08082000
 Ni      2.87709000     -3.20007000      0.36578100
 Ni     -1.15309000     -3.52307000      2.07808000
 Ni     -2.87804000      3.16211000      0.03000310
 Ni      1.65364000      2.83835000      0.40683400
 Ni     -2.55423000      2.66504000      2.50844000
 Ni     -3.12249000     -0.18422400      3.31898000
 Ni      0.41769300      1.73690000     -3.88167000
 Ni     -0.77022600      1.68875000      0.55758400
 Ni     -3.29527000     -1.97698000      1.47198000
 Ni     -0.54994800     -1.47686000      3.70783000
 Ni     -3.95792000      1.05523000     -1.84602000
 Ni      1.18893000     -2.27947000      1.92044000
  C     -4.97068000      0.29849800      3.31585000
  O     -5.89737000      0.16493200      4.21181000
  C     -3.13499000     -4.10221000     -2.73507000
  O     -4.25752000     -4.72895000     -2.76230000
  C     -4.96907000     -1.44736000     -2.98347000
  O     -5.80814000     -2.19920000     -3.62758000
  C     -0.41094800      2.97328000     -5.57086000
  O     -0.98865800      3.08388000     -6.70494000
  C      1.78623000      5.17575000     -0.35167300
  O      2.37735000      6.33465000     -0.10529900
  C      3.50864000     -4.40620000      1.90909000
  O      4.56169000     -4.77606000      2.55720000
  C     -5.55135000      2.25819000     -0.54079800
  O     -6.33833000      3.08179000      0.04608940
  C      2.48324000     -4.76085000     -2.40595000
  O      3.15049000     -5.73334000     -2.91308000
  C     -2.41371000      4.14263000     -3.01072000
  O     -2.74520000      5.38173000     -3.06435000
  C      3.18337000      5.07133000     -2.29360000
  O      4.02950000      5.87216000     -1.77004000
  C      3.68220000      1.60505000     -4.80738000
  O      4.60008000      1.71316000     -5.70723000
  C     -5.94828000      1.09826000     -1.25373000
  O     -7.09652000      0.54475000     -1.44000000
  C     -0.01139760      3.97262000     -4.68530000
  O     -0.13844900      5.24048000     -4.74460000
  C     -0.67563900      3.06585000      4.49526000
  O     -0.71198400      3.59132000      5.70584000
  C     -2.62391000      3.13552000     -3.98018000
  O     -3.08642000      3.30753000     -5.16205000
  C     -2.53230000      5.19339000      1.49604000
  O     -3.13282000      6.32809000      1.40990000
  C      2.77966000      4.50391000     -3.51168000
  O      3.17344000      4.65931000     -4.71910000
  C      5.31422000     -0.26143200      3.08145000
  O      6.53355000     -0.01049970      3.26738000
  C     -5.12792000      0.76838700      1.94420000
  O     -6.32017000      1.16845000      1.65985000
  C     -0.73991600      5.54355000      2.92953000
  O     -0.45643800      6.77305000      3.12575000
  C     -1.27432000     -5.72395000     -1.70504000
  O     -0.91394400     -6.95475000     -1.89651000
  C      4.65534000     -1.10648000     -2.76241000
  O      5.90765000     -1.17415000     -3.17231000
  C     -3.83146000      0.17529300     -4.64972000
  O     -4.30667000      0.02990640     -5.84353000
  C     -1.99362000     -5.10864000     -3.01938000
  O     -2.01443000     -5.91381000     -4.03077000
  C     -3.89801000     -1.93911000      4.23107000
  O     -4.56239000     -2.19147000      5.28829000
  C     -2.32284000      5.37747000      3.13633000
  O     -2.56826000      6.02135000      4.29693000
  C      5.60805000      1.22782000     -1.12770000
  O      6.62988000      1.43097000     -1.91193000
  C      4.49340000     -0.02409270      4.37055000
  O      4.83960000     -0.67151700      5.46947000
  C     -3.44427000      4.18745000      3.17382000
  O     -4.60589000      4.69541000      3.29973000
  C      2.16510000     -4.95481000      1.99769000
  O      2.02914000     -5.98852000      2.75609000
  C     -0.16721200     -4.66979000      3.85793000
  O      0.01048730     -5.86771000      4.30123000
  C     -5.04399000     -0.06801560     -3.71796000
  O     -6.19528000      0.49778200     -3.95747000
  C     -0.39977500     -2.35826000     -4.85433000
  O     -0.16322800     -2.56079000     -6.10254000
  C      3.82846000      1.40645000      4.38658000
  O      4.58171000      2.02857000      5.15162000
  C     -1.90725000     -5.12395000     -0.42817600
  O     -2.87550000     -5.94551000     -0.09322970
  C      5.79275000      0.52230500      0.16529800
  O      6.97832000      0.12191500      0.48658000
