110
Energy = -11795.15802415 au
 Ni      0.16756800     -3.43822000     -2.35597000
 Ni     -1.38865000     -0.26400600     -1.20139000
 Ni      0.37018700     -4.57260000      0.33481300
 Ni     -0.42770800      4.26104000     -0.15156300
 Ni     -1.11439000      2.28346000     -1.94527000
 Ni     -3.25764000      0.43479300      0.71765100
 Ni     -0.98315900     -0.94100000      1.29280000
 Ni     -0.12955100      3.92789000      2.51013000
 Ni      0.36166700     -1.08835000     -3.25265000
 Ni      3.16422000     -0.52121400     -0.79239800
 Ni      0.72284200     -1.65730000     -0.55007200
 Ni      2.60587000     -2.29150000     -2.70896000
 Ni      3.36821000      2.07420000     -1.52967000
 Ni      1.80590000     -0.36720500      3.60930000
 Ni      1.39771000      0.26001400      1.14739000
 Ni      2.76467000      0.27216500     -3.44657000
 Ni      1.34669000      3.59655000     -1.93191000
 Ni     -2.24347000     -2.28083000     -3.04677000
 Ni      3.47506000     -1.12246000      1.76555000
 Ni     -1.77380000     -2.91518000     -0.40752700
 Ni      3.78255000      1.57114000      1.14644000
 Ni      1.00849000      0.89853300     -1.33962000
 Ni     -1.81474000      0.47228900     -3.74195000
 Ni     -3.79929000     -1.41907000     -1.20204000
 Ni      2.02728000      2.29118000      2.93482000
 Ni     -0.28382000      1.02979000      2.99006000
 Ni      2.75339000     -3.11000000      0.00892808
 Ni     -1.28439000     -3.80846000      2.11155000
 Ni     -2.83956000      3.06894000     -0.18145600
 Ni      1.77613000      2.98660000      0.51262800
 Ni     -2.37765000      2.42670000      2.46767000
 Ni     -2.63274000     -0.14834200      3.14278000
 Ni      0.65186800      1.66043000     -3.86764000
 Ni     -0.70594800      1.66572000      0.55212300
 Ni     -3.66765000     -2.15512000      1.56341000
 Ni     -0.48661900     -1.71025000      3.73442000
 Ni     -3.52902000      1.26909000     -1.88807000
 Ni      1.17703000     -2.52380000      2.02880000
  C      2.38964000     -4.15101000     -4.29062000
  O      2.62619000     -4.29494000     -5.55025000
  C     -5.41005000      0.06909440      1.43921000
  O     -6.44140000      0.87017100      1.48547000
  C     -3.62664000     -4.32360000      0.76841000
  O     -4.38473000     -5.35075000      0.66911900
  C      0.75356600     -2.39908000     -4.97065000
  O      0.37520200     -3.09742000     -6.00048000
  C      2.89398000      2.33100000     -4.69895000
  O      3.00234000      2.72399000     -5.91964000
  C      0.34020500      3.68759000      4.70439000
  O      0.01037090      4.28449000      5.78473000
  C     -1.76430000     -5.76805000      1.39103000
  O     -2.51007000     -6.66970000      1.91657000
  C     -1.70697000     -2.16332000     -5.32711000
  O     -1.89028000     -2.81197000     -6.41471000
  C     -3.22533000     -4.10901000     -2.00121000
  O     -3.85723000     -5.19769000     -2.26143000
  C      0.75520600     -5.47766000      2.36271000
  O      0.75295500     -6.61697000      3.00476000
  C      4.84517000     -1.65799000     -2.18107000
  O      6.06603000     -1.90597000     -2.43557000
  C     -1.30589000      5.44631000      3.07963000
  O     -1.39562000      6.32069000      4.03674000
  C     -2.08403000      5.53659000      1.90203000
  O     -2.95997000      6.45632000      1.64716000
  C      4.07703000      4.51940000     -1.44982000
  O      4.95427000      5.12472000     -0.72113800
  C      2.14013000      5.37309000      0.46308000
  O      2.91384000      6.42007000      0.71384000
  C      2.57930000      4.63942000      4.19697000
  O      2.52988000      5.87969000      4.51057000
  C      3.63815000      3.77299000      4.43939000
  O      4.72043000      4.26326000      4.91403000
  C      4.94614000      3.25230000      1.97933000
  O      6.03615000      3.83322000      2.36477000
  C     -5.54927000     -1.28779000      1.84472000
  O     -6.67112000     -1.75844000      2.27195000
  C     -4.71249000     -1.57652000     -3.41366000
  O     -5.76601000     -1.77927000     -4.09780000
  C     -1.48861000      5.65094000     -1.90502000
  O     -1.82588000      6.77480000     -2.43717000
  C     -3.28733000     -3.37732000      3.69516000
  O     -4.00222000     -4.02374000      4.52980000
  C      1.77578000     -4.58003000      3.02565000
  O      2.97111000     -5.00982000      3.26639000
  C      4.06826000      0.18111400     -5.50816000
  O      4.75835000      0.89537900     -6.32858000
  C      1.35311000      5.39181000      1.99793000
  O      1.53845000      6.54706000      2.53591000
  C     -2.54560000      2.40457000      4.85512000
  O     -2.70336000      3.12932000      5.90946000
  C     -3.97509000      3.55792000     -2.45409000
  O     -4.52669000      4.33991000     -3.27647000
  C      0.80653000     -3.88549000      4.07812000
  O      0.80138300     -4.65175000      5.09725000
  C     -1.18753000     -5.95026000      0.06154070
  O     -1.58665000     -6.89740000     -0.71265400
  C      2.08662000     -1.65422000     -5.02815000
  O      2.68756000     -1.75753000     -6.17065000
  C      2.60441000      5.15902000     -1.22266000
  O      2.57959000      6.29629000     -1.80979000
  C      4.18197000      2.72784000     -3.94649000
  O      5.30747000      2.62191000     -4.58019000
  C     -1.60971000      2.50831000     -5.08838000
  O     -2.20836000      3.29921000     -5.88439000
  C      2.19219000     -5.55843000     -1.02468000
  O      2.60939000     -6.73981000     -1.30572000
  C      4.56327000      3.88782000     -2.82834000
  O      5.51411000      4.60219000     -3.32238000
  C      3.78764000      4.10203000      1.82734000
  O      3.97572000      5.31216000      2.21886000
