#B3LYP/6-31+G(d) OPT FREQ

110, Energy = -12005.69887790 au

0 1
 Ni      0.26122100     -3.49453000     -2.36256000
 Ni     -1.42814000     -0.22138900     -1.22370000
 Ni      0.66843400     -4.34606000      0.25117300
 Ni     -0.62815400      4.66578000     -0.23554500
 Ni     -1.24766000      2.34203000     -2.10931000
 Ni     -3.28704000      0.54464200      0.66145500
 Ni     -0.98570700     -0.85135800      1.33378000
 Ni     -0.02969240      3.96648000      2.37911000
 Ni      0.31812400     -1.03568000     -3.24586000
 Ni      3.21279000     -0.57316600     -0.77380100
 Ni      0.75262000     -1.62220000     -0.58319700
 Ni      2.73515000     -2.42416000     -2.55066000
 Ni      3.45744000      2.07588000     -1.68406000
 Ni      1.72696000     -0.25235800      3.97585000
 Ni      1.38677000      0.27562000      1.21725000
 Ni      2.62510000      0.32463800     -3.44293000
 Ni      1.36720000      3.42858000     -2.16801000
 Ni     -2.12455000     -1.99652000     -3.19998000
 Ni      3.44445000     -1.10514000      1.81711000
 Ni     -1.63149000     -2.73414000     -0.40980400
 Ni      3.79622000      1.51863000      1.07929000
 Ni      0.98290800      0.88570300     -1.36689000
 Ni     -1.86942000      0.45920200     -3.89871000
 Ni     -3.93370000     -1.40511000     -1.08932000
 Ni      1.92364000      2.32647000      3.12530000
 Ni     -0.28695900      1.08571000      3.21148000
 Ni      2.80159000     -3.15866000      0.09562730
 Ni     -1.27320000     -3.40672000      2.18661000
 Ni     -2.95789000      3.18344000     -0.07937950
 Ni      1.65101000      2.82391000      0.44438600
 Ni     -2.37381000      2.59094000      2.39104000
 Ni     -2.55909000     -0.03290050      3.27436000
 Ni      0.68976300      1.51960000     -4.19831000
 Ni     -0.73581700      1.69327000      0.55473300
 Ni     -3.40960000     -2.03153000      1.32589000
 Ni     -0.48962900     -1.72315000      3.86366000
 Ni     -3.61255000      1.40629000     -1.87710000
 Ni      1.11280000     -2.27564000      1.93776000
  C      4.64456000      2.70981000     -3.24550000
  O      5.76284000      2.91361000     -3.75173000
  C      1.52797000      5.09175000      2.87396000
  O      1.48733000      6.29248000      3.32802000
  C      0.29785900      1.15105000      5.88202000
  O     -0.54377000      1.14335000      6.85727000
  C     -2.21259000      5.15195000     -1.71892000
  O     -2.52313000      6.19837000     -2.38455000
  C     -4.25970000     -3.96527000      0.24867900
  O     -5.17260000     -4.58170000     -0.40616200
  C      1.01635000      2.25221000      5.05932000
  O      1.29344000      2.98656000      6.07004000
  C     -0.08652240     -0.62975300     -5.96008000
  O     -0.57140900     -0.23738300     -7.06944000
  C     -1.41583000     -3.93169000      4.82307000
  O     -2.39279000     -4.45649000      5.42245000
  C     -0.78664400     -1.77540000     -5.18351000
  O     -0.91219700     -2.65639000     -6.10540000
  C     -1.47390000      5.55991000      2.50171000
  O     -1.26553000      6.47295000      3.38992000
  C     -5.46200000     -0.21535300      0.72967200
  O     -6.61137000      0.18625600      1.04522000
  C      2.97236000      4.60469000      2.76969000
  O      3.90261000      5.22054000      3.43830000
  C      1.33493000     -0.17089000     -5.52651000
  O      1.99091000     -0.33740900     -6.60821000
  C     -3.49268000      3.00840000     -3.43084000
  O     -4.39067000      3.85637000     -3.80097000
  C      2.35745000     -5.14096000      1.61300000
  O      2.73770000     -6.13710000      2.32155000
  C     -3.69845000     -4.39917000      2.85174000
  O     -4.30988000     -4.75958000      3.99752000
  C      3.81341000      3.89940000      1.37894000
  O      4.84640000      4.72929000      1.09536000
  C      0.03429390     -3.71384000      4.64773000
  O      0.85555200     -4.38911000      5.35928000
  C     -2.07175000      1.24639000      5.10299000
  O     -2.65523000      1.82298000      6.06684000
  C      5.10725000     -1.78668000     -1.58787000
  O      6.32685000     -1.53996000     -1.29160000
  C     -2.91865000      4.84942000      2.13367000
  O     -3.90237000      5.66600000      2.20530000
  C     -3.62687000     -4.82634000      1.28707000
  O     -3.50264000     -6.10997000      1.23101000
  C      1.53455000     -3.31765000     -4.46155000
  O      1.73132000     -3.74474000     -5.66005000
  C      1.27097000      0.02632550      5.79883000
  O      1.76049000      0.10364200      6.97804000
  C      3.37550000      2.33874000     -4.88834000
  O      4.38103000      2.09240000     -5.66315000
  C      2.03250000     -5.46801000     -1.42317000
  O      2.46630000     -6.63445000     -1.67168000
  C      4.77494000     -2.77243000     -2.56253000
  O      5.60947000     -3.51563000     -3.20197000
  C     -1.57053000      5.97624000      0.97120600
  O     -1.97483000      7.16903000      0.76144400
  C      1.90911000      2.34001000     -5.39151000
  O      1.97598000      2.92743000     -6.53215000
  C     -5.25322000      2.37589000     -0.24785000
  O     -6.45280000      2.66485000      0.00018684
  C     -2.27954000      2.89574000     -4.29769000
  O     -2.21814000      3.64828000     -5.32905000
  C     -4.94553000     -2.67218000     -2.94813000
  O     -6.00173000     -2.70733000     -3.68672000
  C      1.43206000      5.71701000     -0.38717000
  O      1.80837000      6.90799000     -0.12484100
  C      5.99808000      0.94313100      0.20110300
  O      7.27284000      0.84050600      0.35977500
  C      3.45533000      3.47331000     -3.68656000
  O      3.63555000      4.60217000     -4.23509000
  C     -3.52664000     -1.04817000     -4.85381000
  O     -4.48388000     -1.20155000     -5.67196000

