110
Energy = -12242.54422138 au
 Ni     -0.10953800     -3.79466000     -2.46511000
 Ni     -1.42167000     -0.22213600     -1.29898000
 Ni      0.71457000     -4.31644000     -0.06875170
 Ni     -0.62694300      4.23168000     -0.33914500
 Ni     -1.12201000      2.40500000     -2.01464000
 Ni     -3.20332000      0.47916200      0.73351000
 Ni     -1.07095000     -0.85126500      1.30454000
 Ni     -0.08932480      3.52238000      2.62854000
 Ni      0.25317300     -1.00605000     -3.41502000
 Ni      3.07625000     -0.56017100     -0.66553600
 Ni      0.68414400     -1.67910000     -0.67317100
 Ni      2.19583000     -2.48680000     -2.79091000
 Ni      3.33284000      2.16125000     -1.63610000
 Ni      1.99609000     -0.22311900      4.03819000
 Ni      1.38769000      0.28897300      1.22674000
 Ni      2.60137000      0.28902200     -3.53264000
 Ni      1.22335000      3.69565000     -2.07019000
 Ni     -2.09175000     -2.01375000     -3.21002000
 Ni      3.67021000     -1.09538000      1.92691000
 Ni     -1.73019000     -2.92489000     -0.49661200
 Ni      3.83847000      1.37490000      1.30245000
 Ni      0.94464900      0.92148400     -1.42035000
 Ni     -2.12260000      0.59036400     -3.98362000
 Ni     -3.93398000     -1.24778000     -0.88864900
 Ni      2.18216000      2.07303000      3.09398000
 Ni     -0.31788000      0.97358200      3.16252000
 Ni      3.02127000     -3.13973000     -0.13442900
 Ni     -1.33227000     -3.24842000      2.16222000
 Ni     -2.95831000      3.13377000     -0.38043200
 Ni      1.70843000      2.92737000      0.45174900
 Ni     -2.42566000      2.58282000      2.65929000
 Ni     -2.99759000     -0.29738900      3.43759000
 Ni      0.26624400      1.94292000     -4.11168000
 Ni     -0.77764700      1.69246000      0.54960600
 Ni     -3.77332000     -2.15825000      1.65960000
 Ni     -0.59669700     -1.31796000      3.96480000
 Ni     -3.54815000      1.13956000     -1.98795000
 Ni      1.15757000     -2.17182000      1.88407000
  C      1.44725000      5.91757000     -2.06617000
  O      2.43964000      6.70530000     -1.88392000
  C      5.02951000     -2.34294000      0.23932600
  O      6.24149000     -2.71063000     -0.02526520
  C     -1.36525000     -2.72029000     -5.12318000
  O     -2.28190000     -2.95535000     -6.01883000
  C     -0.32370000     -1.61306000     -5.19989000
  O      0.21100700     -1.62142000     -6.34695000
  C      3.86710000      1.66551000      4.54249000
  O      3.98004000      2.24932000      5.68333000
  C     -4.22786000     -3.97489000      0.68009100
  O     -5.08203000     -4.87894000      0.94899900
  C      2.87916000      4.58690000     -0.17135400
  O      3.43536000      5.63428000      0.30992800
  C      2.51226000     -1.66035000     -5.08419000
  O      2.70009000     -2.44824000     -6.08678000
  C     -1.52200000      3.11519000      4.65634000
  O     -2.17545000      3.11971000      5.76861000
  C     -0.26724100      3.89168000      4.56063000
  O      0.38036300      4.57245000      5.43416000
  C      1.23201000      3.61912000     -5.51149000
  O      0.75135900      4.50799000     -6.31176000
  C      2.61168000     -0.24030100     -5.42568000
  O      2.79690000      0.32317700     -6.56639000
  C     -1.25392000      2.30302000     -5.43657000
  O     -1.26382000      2.92090000     -6.54196000
  C     -4.30775000     -0.57168700      5.04958000
  O     -4.58378000     -1.22420000      6.10147000
  C      4.41756000      0.16529200      4.00745000
  O      5.21399000     -0.53247900      4.73546000
  C     -0.36566600      0.20017700      5.52875000
  O     -1.12514000      0.54714400      6.51562000
  C     -0.97306800      3.98736000     -3.53041000
  O     -0.75239900      5.13600000     -4.07982000
  C     -3.45339000      4.16077000     -2.23360000
  O     -4.71095000      4.36367000     -2.37564000
  C     -3.16020000     -2.69137000      3.80757000
  O     -3.90488000     -3.37284000      4.73161000
  C     -1.05005000     -5.03036000     -3.62765000
  O     -1.63703000     -6.11772000     -3.47994000
  C     -2.37905000      5.08758000     -1.55488000
  O     -2.55337000      6.21320000     -2.09775000
  C     -1.70853000     -4.99802000     -1.10082000
  O     -2.59878000     -5.98146000     -1.20812000
  C     -2.67682000      4.69213000      2.79196000
  O     -3.45189000      5.47897000      3.41749000
  C      1.14824000      0.25188000      5.71087000
  O      1.72519000      0.56126000      6.82118000
  C     -5.44673000     -1.02333000      1.45699000
  O     -6.41195000     -1.02584000      2.31638000
  C     -4.01686000     -0.24807200     -4.11097000
  O     -4.90596000     -0.28038700     -5.08352000
  C      4.93444000      1.58356000      3.29192000
  O      6.05626000      2.20102000      3.27887000
  C     -2.62063000      2.55631000     -4.73921000
  O     -3.78546000      2.60997000     -5.30087000
  C     -2.59924000      3.91233000     -3.73272000
  O     -3.26220000      4.82829000     -4.36678000
  C      2.28295000     -5.62419000     -0.59672400
  O      2.54913000     -6.83851000     -0.25143800
  C      4.00171000      2.46175000     -3.60644000
  O      4.78611000      3.25088000     -4.24893000
  C     -0.49690600     -4.18969000     -4.82982000
  O     -0.58326800     -4.90670000     -5.96831000
  C     -4.86863000      0.40302200      4.19980000
  O     -5.94005000      1.10050000      4.09815000
  C     -5.64232000     -0.61409800      0.17231600
  O     -6.80446000     -0.24559600     -0.24851800
  C      2.82972000     -5.06947000     -1.85706000
  O      3.35353000     -5.72778000     -2.81168000
  C      1.05552000     -3.72215000     -4.25080000
  O      1.60974000     -4.33091000     -5.24273000
