110
Energy = -12438.90275024 au
 Ni      0.24233900     -3.52280000     -2.40847000
 Ni     -1.35282000     -0.26204200     -1.14830000
 Ni      0.48710000     -4.82967000      0.23220500
 Ni     -0.45285700      4.37147000     -0.12965200
 Ni     -1.23970000      2.47991000     -1.92394000
 Ni     -3.18106000      0.61096800      0.75898200
 Ni     -1.03708000     -0.97421500      1.41889000
 Ni     -0.25349800      3.60680000      2.51038000
 Ni      0.35138600     -1.01038000     -3.10683000
 Ni      3.10673000     -0.63731800     -0.66965500
 Ni      0.73483500     -1.71114000     -0.50249100
 Ni      2.67245000     -2.37387000     -2.55137000
 Ni      3.30650000      2.17727000     -1.36190000
 Ni      1.75479000     -0.44431700      4.07591000
 Ni      1.38417000      0.24039200      1.29859000
 Ni      2.61059000      0.21531200     -3.07611000
 Ni      1.22802000      3.64871000     -1.88428000
 Ni     -1.94756000     -2.15038000     -3.09102000
 Ni      3.37975000     -1.31197000      2.04955000
 Ni     -1.59463000     -3.08259000     -0.36429500
 Ni      3.68828000      1.44757000      1.10513000
 Ni      0.92346100      0.99023700     -1.26250000
 Ni     -1.78230000      0.44178300     -3.62104000
 Ni     -3.66307000     -1.47198000     -0.89696700
 Ni      2.07625000      2.28805000      3.04331000
 Ni     -0.42709900      0.94762400      3.04512000
 Ni      2.70025000     -3.34794000      0.16044200
 Ni     -1.16998000     -3.55781000      2.52841000
 Ni     -2.93396000      3.20097000      0.08915550
 Ni      1.69573000      3.31299000      0.58564300
 Ni     -2.65171000      2.53121000      2.59616000
 Ni     -2.92767000     -0.13042100      3.13094000
 Ni      0.29212100      1.86072000     -3.83239000
 Ni     -0.78176700      1.73411000      0.61824100
 Ni     -3.76232000     -2.23970000      1.60296000
 Ni     -0.45497200     -1.50931000      4.08303000
 Ni     -3.47460000      1.18995000     -1.72059000
 Ni      1.22738000     -2.71494000      2.32848000
  C      2.37966000      4.94997000      2.21956000
  O      3.16020000      5.73893000      1.54993000
  C     -5.61680000      0.70076600      0.74294800
  O     -6.64005000      0.54048500     -0.00946586
  C     -0.78936900     -6.16518000     -0.11984000
  O     -0.67504800     -7.44215000      0.02041580
  C     -1.22678000      2.52922000     -5.49738000
  O     -1.89726000      2.60716000     -6.58380000
  C     -4.41333000     -3.69919000      0.58272700
  O     -5.11828000     -4.76710000      0.80992800
  C     -1.83529000     -5.24943000     -0.59114800
  O     -2.87084000     -5.82897000     -1.10609000
  C      1.12337000     -3.14578000     -4.34470000
  O      1.90822000     -3.81404000     -5.11627000
  C      2.49095000     -3.12634000      4.60384000
  O      2.39389000     -4.34375000      4.99846000
  C     -0.23369100      5.80863000      2.47356000
  O     -0.82721900      6.94106000      2.62005000
  C      1.94165000     -1.94124000      5.39893000
  O      2.36530000     -2.17583000      6.58844000
  C     -1.47841000     -2.67824000     -4.90275000
  O     -2.22481000     -2.95399000     -5.91490000
  C      2.55675000     -4.45306000      2.00033000
  O      3.43593000     -5.00781000      2.76202000
  C      2.89996000      3.99614000      3.30537000
  O      3.69959000      4.61590000      4.09505000
  C     -0.26185300     -3.31331000      4.86314000
  O     -0.03167990     -4.01344000      5.94472000
  C      1.18513000      6.00171000      2.63825000
  O      1.81266000      6.95241000      3.21839000
  C     -2.78274000      5.31534000      2.75537000
  O     -2.88965000      6.45801000      3.35924000
  C      0.01294920      1.94598000      5.58648000
  O      0.46234400      2.36466000      6.70343000
  C     -0.57145100      3.54047000     -4.73076000
  O     -0.53513100      4.82332000     -4.81095000
  C      1.36597000     -5.58566000      1.92654000
  O      1.61308000     -6.85939000      1.91019000
  C      4.54552000     -2.13652000     -2.36125000
  O      5.68859000     -2.55786000     -2.81411000
  C      1.49780000      4.94202000     -0.54750800
  O      2.10452000      6.08361000     -0.55023400
  C     -0.50833300      2.96527000      4.59399000
  O     -1.01936000      3.91601000      5.29689000
  C     -5.06433000      3.99735000      1.81786000
  O     -5.27289000      5.26668000      2.22387000
  C      1.93386000     -5.57027000     -0.81108200
  O      2.36047000     -6.79867000     -1.01028000
  C     -2.63240000      5.24431000      1.12825000
  O     -3.20100000      6.41567000      0.66301600
  C     -3.27961000     -3.38039000      3.26542000
  O     -4.05136000     -3.99530000      4.16201000
  C      4.32084000      3.49142000     -0.03716330
  O      5.14651000      4.52021000      0.00149863
  C      3.59428000     -2.54692000      3.65183000
  O      4.64017000     -3.05044000      4.20081000
  C     -0.02913220     -2.60163000     -5.29519000
  O      0.28791700     -2.34021000     -6.51712000
  C     -4.93570000      2.02456000      1.06660000
  O     -5.95795000      2.77092000      1.64183000
  C     -2.30899000      4.25167000     -2.13340000
  O     -2.78460000      5.04211000     -3.07085000
  C     -3.14218000      4.14136000      3.61206000
  O     -3.88086000      4.31574000      4.64792000
  C      0.10246100      0.38500200      5.40400000
  O     -0.12691300     -0.10076200      6.57651000
  C      0.26037000     -4.99582000      2.93049000
  O      0.39160300     -5.65707000      4.02503000
  C     -4.85873000     -0.13932000      3.05166000
  O     -5.75235000      0.37871400      3.81772000
  C     -5.54673000     -0.61488000      1.73579000
  O     -6.59034000     -1.35968000      1.61115000
