#B3LYP/6-31+G(d) OPT FREQ

110, Energy = -12021.02826162 au

0 1
 Ni     -0.15522400     -3.64540000     -2.24892000
 Ni     -1.41647000     -0.23964700     -1.21043000
 Ni      0.55221800     -4.46984000      0.24951500
 Ni     -0.39005700      4.54727000     -0.23605100
 Ni     -1.26257000      2.56987000     -2.20091000
 Ni     -3.24846000      0.56147900      0.69297300
 Ni     -0.95817200     -0.92118200      1.30679000
 Ni      0.03647060      3.65722000      2.19861000
 Ni      0.22991800     -0.91081000     -3.13661000
 Ni      3.28738000     -0.64364100     -0.59483200
 Ni      0.72599800     -1.70542000     -0.50487000
 Ni      2.41905000     -2.35005000     -2.31748000
 Ni      3.28180000      2.20004000     -1.66120000
 Ni      2.14894000     -0.47498700      3.72721000
 Ni      1.42272000      0.18964100      1.19007000
 Ni      2.64180000      0.36908000     -3.24696000
 Ni      1.18433000      3.68133000     -2.16293000
 Ni     -2.39969000     -2.06951000     -3.10796000
 Ni      3.94469000     -1.37398000      1.94240000
 Ni     -1.74268000     -2.92799000     -0.43583900
 Ni      3.72987000      1.45220000      1.08323000
 Ni      0.95950500      0.92399800     -1.33304000
 Ni     -1.91773000      0.52407500     -3.97290000
 Ni     -3.88276000     -1.37154000     -1.19208000
 Ni      2.19323000      2.06117000      2.94680000
 Ni     -0.27595100      0.98626200      3.16626000
 Ni      3.10382000     -3.32156000      0.20526900
 Ni     -1.06928000     -3.56138000      2.34608000
 Ni     -2.72254000      3.27405000     -0.12646100
 Ni      1.73176000      2.98425000      0.42533400
 Ni     -2.36648000      2.32162000      2.44550000
 Ni     -2.65326000     -0.14998300      3.16660000
 Ni      0.47998400      1.62976000     -4.09572000
 Ni     -0.72851200      1.66050000      0.50204100
 Ni     -3.32466000     -2.08726000      1.52016000
 Ni     -0.61713700     -1.73993000      3.89662000
 Ni     -3.50202000      1.20108000     -1.79319000
 Ni      1.32796000     -2.40151000      2.07952000
  C     -2.05530000      6.07360000     -0.93386000
  O     -1.87154000      7.22956000     -1.48319000
  C     -3.62547000     -0.78324900     -4.68454000
  O     -4.59133000     -0.85186300     -5.61468000
  C     -4.00382000     -2.94178000      3.58601000
  O     -4.90794000     -3.62287000      4.19255000
  C      1.54635000      5.54788000     -0.79385700
  O      2.16925000      6.69436000     -0.69107100
  C     -1.97404000     -5.09429000     -2.65836000
  O     -2.19624000     -5.79231000     -3.68267000
  C     -2.92314000     -4.72784000     -1.40578000
  O     -4.14749000     -5.02619000     -1.17191000
  C      2.13208000     -4.99590000      2.46595000
  O      2.59945000     -5.88597000      3.25998000
  C      2.45268000     -5.48322000     -0.57591700
  O      2.94536000     -6.63255000     -0.94618800
  C     -5.25958000      1.08502000      1.76693000
  O     -6.14066000      1.17132000      2.70084000
  C     -5.01933000     -1.73299000     -2.99455000
  O     -6.17784000     -1.88314000     -3.56013000
  C     -2.37227000      5.63199000      0.48488200
  O     -2.85935000      6.56459000      1.20897000
  C     -2.19058000      5.14904000     -2.26947000
  O     -3.38275000      5.49653000     -2.62550000
  C      2.82299000     -2.86155000      3.83651000
  O      3.00467000     -3.52717000      4.91496000
  C     -2.56730000      3.20173000     -3.79497000
  O     -3.28695000      4.11898000     -4.32864000
  C     -0.83350300      4.87829000     -2.89061000
  O     -0.75216300      5.70497000     -3.86730000
  C      3.68799000      0.73807600      4.72192000
  O      4.10837000      1.11894000      5.87011000
  C     -5.50908000      1.24474000      0.39927600
  O     -6.67625000      1.47285000     -0.09531170
  C      5.19376000     -1.19151000      3.56893000
  O      6.22617000     -1.65038000      4.16759000
  C     -3.58384000     -3.46903000     -4.52117000
  O     -4.62730000     -3.37284000     -5.27073000
  C     -1.77952000      2.77225000     -5.08235000
  O     -2.40913000      2.61024000     -6.21777000
  C      0.91200500      5.63213000      1.70078000
  O      1.55394000      6.61385000      2.09481000
  C      4.95876000     -3.52477000     -0.87670400
  O      6.00118000     -4.24711000     -1.05197000
  C      5.38770000     -2.05797000     -0.82217000
  O      6.16471000     -1.68297000     -1.79083000
  C      0.50769000     -5.32676000      2.74772000
  O      0.19327400     -6.58584000      2.81958000
  C      4.92239000      0.25253000      3.96776000
  O      6.02177000      0.93374800      3.95337000
  C      3.35292000      2.61412000     -4.17809000
  O      3.85881000      2.78197000     -5.34562000
  C     -1.90906000     -3.25364000      4.78709000
  O     -2.49997000     -3.70771000      5.82670000
  C      0.09509660     -4.41204000      3.92644000
  O      0.32782400     -4.96254000      5.05586000
  C      3.44950000      4.03056000      1.39960000
  O      4.00171000      5.14708000      1.44510000
  C     -0.03076970     -0.05943400     -5.54111000
  O      0.14583600     -0.35329000     -6.82339000
  C      3.60534000      3.76346000     -3.26125000
  O      4.34530000      4.72639000     -3.66587000
  C     -0.31547900      3.25038000     -5.08478000
  O     -0.24018200      4.27512000     -5.84717000
  C     -1.50341000     -5.54166000     -1.11667000
  O     -1.47651000     -6.77450000     -0.78497100
  C      5.51526000     -1.70768000      0.69860200
  O      6.73227000     -1.89912000      1.05653000
  C      3.32473000     -3.89152000      2.74010000
  O      4.52969000     -4.32394000      2.71674000
  C     -1.36783000      1.83783000      5.03034000
  O     -1.16900000      2.14871000      6.22931000

