110
Energy = -11815.00973198 au
 Ni      0.09692840     -3.56707000     -2.43130000
 Ni     -1.40076000     -0.23149800     -1.19219000
 Ni      0.39585900     -4.38505000      0.38133200
 Ni     -0.33841500      4.33308000     -0.10024300
 Ni     -1.15967000      2.35546000     -1.96169000
 Ni     -3.10937000      0.49924200      0.66071400
 Ni     -0.96870200     -0.91197000      1.30875000
 Ni     -0.13734100      3.77877000      2.28063000
 Ni      0.24123400     -1.06756000     -3.13691000
 Ni      3.19534000     -0.50812600     -0.67970800
 Ni      0.73448200     -1.67649000     -0.54282800
 Ni      2.39294000     -2.59163000     -2.41948000
 Ni      3.53046000      1.91655000     -1.39900000
 Ni      1.81841000     -0.35771400      3.74367000
 Ni      1.37225000      0.21421000      1.17852000
 Ni      2.60437000      0.14032200     -3.12907000
 Ni      1.18038000      3.59874000     -2.02146000
 Ni     -2.05032000     -2.16499000     -2.92950000
 Ni      3.54453000     -1.11530000      1.92336000
 Ni     -1.70253000     -2.87926000     -0.39642200
 Ni      3.73456000      1.30672000      1.12507000
 Ni      0.96388600      0.89819500     -1.30003000
 Ni     -1.94302000      0.46358400     -3.75923000
 Ni     -3.87342000     -1.31202000     -0.98547300
 Ni      2.02751000      2.05186000      2.93843000
 Ni     -0.31285600      1.02512000      3.14620000
 Ni      2.88578000     -3.17342000      0.25496800
 Ni     -1.27211000     -3.48933000      2.04295000
 Ni     -3.05845000      3.01337000     -0.01437700
 Ni      1.62523000      2.91439000      0.42357900
 Ni     -2.42045000      2.63525000      2.56613000
 Ni     -2.65259000     -0.14284000      3.12570000
 Ni      0.43708500      1.78218000     -3.82401000
 Ni     -0.74891900      1.66916000      0.56779400
 Ni     -3.56413000     -2.03045000      1.71968000
 Ni     -0.53754500     -1.46069000      3.89627000
 Ni     -3.68765000      1.19263000     -1.83589000
 Ni      1.18292000     -2.40013000      2.01948000
  C     -5.13174000      3.34558000      0.32445300
  O     -6.01820000      4.16539000      0.76488300
  C      1.65604000     -6.44955000      0.88813400
  O      2.05414000     -7.21447000      1.85072000
  C     -5.68519000     -0.80656300      0.94372400
  O     -6.88780000     -0.47269500      0.64467200
  C     -3.83024000     -3.23216000      3.51112000
  O     -4.90394000     -3.74812000      3.99801000
  C      1.46082000      5.93784000      0.02921660
  O      1.25527000      7.27776000     -0.07995180
  C     -0.26743400      3.62119000     -4.76750000
  O     -0.49449400      4.11633000     -5.94279000
  C      5.52020000      0.21756900     -1.22601000
  O      6.56332000     -0.52871400     -1.29656000
  C     -1.07102000     -5.66539000     -1.94293000
  O     -1.72829000     -6.67973000     -2.40153000
  C     -5.98256000      0.40808600     -1.40188000
  O     -7.26742000      0.37989600     -1.58255000
  C      3.68397000     -4.53744000      1.62163000
  O      4.50405000     -5.58344000      1.80937000
  C      2.93602000      0.74388200      5.58066000
  O      4.11803000      0.80809100      6.26913000
  C      1.30494000     -4.69181000      2.90328000
  O      1.25575000     -5.73295000      3.72402000
  C      1.35772000      1.08111000      5.84070000
  O      1.36291000      2.04615000      6.70621000
  C     -2.78523000      4.89899000      2.42431000
  O     -3.78205000      5.62775000      2.80888000
  C     -3.25483000      2.51314000     -4.19859000
  O     -3.69604000      3.28598000     -5.11448000
  C      2.75600000     -4.72121000     -3.01946000
  O      3.43725000     -5.43230000     -3.89322000
  C     -3.49445000     -4.05468000     -2.01297000
  O     -4.09776000     -5.14468000     -2.29323000
  C     -0.26951200     -2.28801000     -5.16018000
  O     -0.52015700     -2.09567000     -6.44684000
  C      0.32904100     -3.28660000     -4.76623000
  O      0.78457700     -4.17779000     -5.68580000
  C     -1.57912000      5.62526000      2.05649000
  O     -1.57676000      6.89968000      2.15895000
  C     -4.15043000      0.00621335     -4.55610000
  O     -4.92895000     -0.08379130     -5.58417000
  C     -1.29538000     -5.98872000      0.80183000
  O     -1.40628000     -7.26106000      0.83125500
  C      2.30290000      5.20981000     -1.02568000
  O      3.29898000      6.03462000     -1.09346000
  C     -3.86413000      2.84185000      4.61055000
  O     -3.86234000      3.27157000      5.83071000
  C     -0.63589600      4.45178000     -3.63389000
  O     -1.22905000      5.56579000     -3.85253000
  C     -2.71225000     -3.34227000      4.41078000
  O     -2.78906000     -3.84346000      5.57556000
  C      1.53904000      5.29990000      1.45307000
  O      2.31112000      6.15976000      1.99107000
  C      2.80164000     -4.32052000      2.80036000
  O      3.37978000     -4.44941000      3.95613000
  C      2.23268000     -5.47323000     -1.93756000
  O      2.44411000     -6.73988000     -1.74431000
  C      5.71347000      1.58537000     -1.56886000
  O      6.86389000      2.05012000     -1.89428000
  C     -5.52917000      2.03408000     -0.19739300
  O     -6.77581000      1.81339000      0.15824700
  C     -2.50059000     -5.19140000      0.56614800
  O     -3.57985000     -5.83421000      0.32792200
  C     -0.92142900      3.25116000      4.62918000
  O     -1.00538000      3.76673000      5.81972000
  C      0.16583300      0.12598700      5.72795000
  O     -0.43087300      0.11928200      6.87304000
  C      4.83696000      0.30915000      3.55004000
  O      5.85361000      0.36022600      4.34773000
  C     -5.49338000     -1.17926000      2.32619000
  O     -6.45272000     -1.14019000      3.17244000
