#B3LYP/6-31+G(d) OPT FREQ

110, Energy = -10467.33673653 au

0 1
 Ni      0.06501610     -3.48436000     -2.25283000
 Ni     -1.36854000     -0.22810600     -1.15940000
 Ni      0.49134900     -4.17557000      0.24960900
 Ni     -0.51511700      4.19121000     -0.23304900
 Ni     -1.13907000      2.25079000     -1.91207000
 Ni     -3.07293000      0.50748600      0.66804300
 Ni     -0.94954000     -0.86231600      1.28651000
 Ni     -0.09080670      3.49697000      2.23801000
 Ni      0.29876900     -0.95904200     -2.97791000
 Ni      3.03910000     -0.49546700     -0.66236900
 Ni      0.71396400     -1.61009000     -0.53291600
 Ni      2.42825000     -2.32905000     -2.39628000
 Ni      3.29339000      2.00609000     -1.43217000
 Ni      1.82684000     -0.42556300      3.66888000
 Ni      1.36734000      0.22793900      1.16061000
 Ni      2.64642000      0.17590100     -3.17239000
 Ni      1.17926000      3.37164000     -2.07645000
 Ni     -2.05948000     -2.10537000     -2.88909000
 Ni      3.49400000     -1.12338000      1.81797000
 Ni     -1.59328000     -2.69893000     -0.40603300
 Ni      3.72424000      1.33860000      1.06695000
 Ni      0.94802800      0.86272300     -1.28810000
 Ni     -1.80979000      0.42010800     -3.63895000
 Ni     -3.71319000     -1.33571000     -1.05266000
 Ni      2.04473000      2.07807000      2.88371000
 Ni     -0.30033800      0.96013200      2.97776000
 Ni      2.80801000     -2.98404000      0.08315560
 Ni     -1.19601000     -3.39830000      2.04475000
 Ni     -2.81390000      3.02137000     -0.09916770
 Ni      1.59475000      2.69854000      0.40679300
 Ni     -2.44412000      2.36585000      2.39771000
 Ni     -2.67279000     -0.16429900      3.15960000
 Ni      0.54303900      1.54280000     -3.79965000
 Ni     -0.71724600      1.61102000      0.53333500
 Ni     -3.30502000     -2.00579000      1.44347000
 Ni     -0.51905900     -1.51468000      3.76354000
 Ni     -3.52211000      1.13947000     -1.78690000
 Ni      1.14408000     -2.25508000      1.92418000
  C     -1.65493000      5.64819000     -1.88122000
  O     -1.92896000      6.65311000     -2.61344000
  C     -3.66867000     -4.58523000      0.92061300
  O     -4.55149000     -5.57373000      0.70646000
  C      3.94483000      3.26181000     -3.59336000
  O      4.64949000      3.88897000     -4.47525000
  C     -3.82350000     -2.76185000      3.94244000
  O     -4.53703000     -3.62039000      4.78594000
  C      3.02046000      1.96918000     -5.12672000
  O      3.67037000      2.56324000     -6.08850000
  C      1.04062000     -5.77134000      2.09541000
  O      1.41942000     -6.81593000      2.71341000
  C     -0.50111500      4.28273000     -3.99569000
  O     -0.90301400      5.35812000     -4.73030000
  C     -3.18064000     -4.29243000     -3.16573000
  O     -3.98538000     -5.19411000     -3.45236000
  C     -2.69867000      5.08072000      2.30883000
  O     -3.32516000      6.16372000      2.72049000
  C     -4.05254000      4.08592000      3.38273000
  O     -4.69876000      5.07399000      3.86741000
  C     -5.99662000      1.13684000     -1.61247000
  O     -7.32323000      1.32738000     -1.54814000
  C      1.59395000     -4.42414000      3.22996000
  O      2.07880000     -5.33242000      4.08630000
  C     -1.16072000      2.93830000     -5.11971000
  O     -1.69101000      3.75807000     -6.07599000
  C     -5.07135000      1.62352000      2.41697000
  O     -6.26192000      2.00250000      2.72321000
  C     -2.31961000     -5.53369000      1.47628000
  O     -2.79784000     -6.70824000      1.43390000
  C     -5.55481000      1.33269000      0.09876610
  O     -6.84832000      1.55822000      0.58397600
  C     -3.04732000      4.63482000     -2.07203000
  O     -3.77248000      5.45609000     -2.90833000
  C      4.38806000      0.62084600     -5.08578000
  O      5.15995000      1.07748000     -5.95153000
  C      3.75509000      4.51724000     -0.69192900
  O      4.45763000      5.59715000     -0.53832800
  C      2.63781000      4.64917000      2.76217000
  O      3.31693000      5.73317000      2.97754000
  C     -3.93258000     -1.30393000      4.92389000
  O     -4.60745000     -1.72299000      5.93546000
  C      3.96335000      0.17751800      4.86167000
  O      4.91399000      0.32055300      5.72310000
  C     -1.79116000     -2.78769000     -5.26132000
  O     -1.70654000     -3.19874000     -6.47580000
  C     -1.01076000      5.78167000      2.50790000
  O     -1.33658000      7.00485000      2.95089000
  C      5.20927000     -1.40848000     -1.94412000
  O      6.46608000     -1.60171000     -2.20027000
  C      1.79097000      3.43801000     -5.06367000
  O      2.30092000      4.18024000     -5.96405000
  C     -1.84003000     -5.19695000     -2.53257000
  O     -2.29526000     -6.38097000     -2.64903000
  C     -2.27549000      2.25919000      5.01574000
  O     -2.40776000      2.67518000      6.23656000
  C      4.71456000     -3.69011000     -2.53304000
  O      5.96665000     -3.88496000     -2.79847000
  C     -2.47529000      5.82080000      0.52376200
  O     -2.96662000      6.99861000      0.74617800
  C     -5.38543000     -0.18156700      2.16479000
  O     -6.70402000     -0.16014400      2.41171000
  C      2.32996000     -3.04598000      4.38281000
  O      2.86456000     -3.77940000      5.28582000
  C      5.35515000      0.78735800      3.08465000
  O      6.34315000      0.97076400      3.90338000
  C      1.73272000     -0.07330830     -5.75416000
  O      1.86466000     -0.44794900     -6.98842000
  C      0.82004500      0.02421410      6.01175000
  O      0.73674600      0.41604300      7.24372000
  C      1.39375000     -3.46591000     -4.70977000
  O      1.51461000     -3.86685000     -5.93896000

