110
Energy = -12464.86662728 au
 Ni      0.12458500     -3.47678000     -2.49791000
 Ni     -1.43009000     -0.19994600     -1.15903000
 Ni      0.79702200     -4.37539000      0.16693300
 Ni     -0.43736800      4.48590000     -0.06804630
 Ni     -1.20066000      2.45602000     -2.12820000
 Ni     -3.57276000      0.58898500      0.78030000
 Ni     -0.95947800     -0.86812600      1.43606000
 Ni     -0.39474900      3.70413000      2.37657000
 Ni      0.38708900     -0.95558700     -3.46943000
 Ni      3.45903000     -0.54688200     -0.83416200
 Ni      0.76269800     -1.64163000     -0.60417800
 Ni      2.44627000     -2.54389000     -2.56559000
 Ni      3.69891000      2.19175000     -1.61350000
 Ni      1.86915000     -0.62853300      3.59894000
 Ni      1.50223000      0.22324500      1.13314000
 Ni      2.68202000      0.30450300     -3.48352000
 Ni      1.32534000      3.39561000     -2.15135000
 Ni     -1.97622000     -2.03297000     -3.16297000
 Ni      3.82498000     -1.02335000      1.74916000
 Ni     -1.60250000     -2.80240000     -0.39680400
 Ni      4.19957000      1.46968000      1.11971000
 Ni      1.05017000      0.87227400     -1.40370000
 Ni     -1.79747000      0.43634800     -3.63635000
 Ni     -3.84597000     -1.21749000     -1.05106000
 Ni      2.31943000      1.93975000      2.91184000
 Ni     -0.39912700      1.20459000      3.34622000
 Ni      2.87226000     -3.08110000     -0.14781700
 Ni     -1.12753000     -3.52603000      2.21657000
 Ni     -3.09362000      3.01895000     -0.10123800
 Ni      1.88276000      2.92298000      0.46680800
 Ni     -2.80454000      2.41606000      2.85099000
 Ni     -2.98697000     -0.27440200      3.23538000
 Ni      0.51813700      1.70838000     -4.15320000
 Ni     -0.75525400      1.71688000      0.60547800
 Ni     -3.29434000     -2.25317000      1.39166000
 Ni     -0.82320000     -1.49382000      4.15622000
 Ni     -3.82034000      1.30245000     -1.99319000
 Ni      1.30733000     -2.54535000      2.15687000
  C     -1.31574000      5.53944000      2.27874000
  O     -1.33333000      6.35247000      3.27799000
  C      2.06477000      1.01295000     -5.83713000
  O      2.03755000      0.71908000     -7.08309000
  C     -4.98445000     -0.33094000      3.62449000
  O     -5.82010000     -0.60687600      4.56378000
  C      2.83775000     -4.76480000     -2.14755000
  O      3.53501000     -5.41485000     -3.00946000
  C     -4.37947000      2.20831000      3.86625000
  O     -5.62323000      2.54253000      3.93611000
  C      3.74167000      3.39962000     -3.04040000
  O      4.60981000      3.94781000     -3.85228000
  C      4.41533000      1.32564000      3.28478000
  O      5.34756000      1.61648000      4.20399000
  C      0.78829900     -4.78354000      2.66527000
  O      0.66630300     -5.70984000      3.54866000
  C     -3.26859000     -4.25872000      1.03707000
  O     -4.13674000     -5.24981000      0.96153500
  C     -5.93730000      2.58010000     -1.02516000
  O     -6.65029000      3.64521000     -1.15364000
  C      5.22437000     -1.55889000     -0.56766000
  O      6.06442000     -1.91870000     -1.47811000
  C      2.33865000     -3.02767000      3.97192000
  O      2.38594000     -3.56544000      5.13560000
  C     -5.91341000      1.46386000     -2.00932000
  O     -7.06322000      1.14509000     -2.46924000
  C      0.87371500     -1.04875000     -5.45846000
  O      0.30669700     -0.74706500     -6.56735000
  C     -2.06190000      3.15387000      4.43843000
  O     -2.65476000      3.45023000      5.57867000
  C      3.22654000      1.50647000     -5.02979000
  O      4.24033000      2.11990000     -5.52588000
  C      3.65508000      4.08889000     -0.00695826
  O      4.82671000      4.57097000      0.21430900
  C      2.29727000     -4.28302000      3.01607000
  O      3.33644000     -4.99965000      2.78330000
  C     -5.26870000      0.23841800      2.32384000
  O     -6.48707000      0.59643100      2.09426000
  C      2.02367000     -1.86575000     -4.93779000
  O      2.60324000     -2.73348000     -5.68804000
  C     -5.06915000      2.39534000      0.28862200
  O     -5.90453000      2.74824000      1.20333000
  C     -0.34293500      1.30303000      5.28839000
  O     -0.25761200      2.37505000      6.00596000
  C     -5.52414000     -0.34469100     -0.19170200
  O     -6.83496000     -0.29262800     -0.10579200
  C      5.50354000      1.21895000     -1.38815000
  O      6.20717000      0.69141700     -2.33241000
  C      5.88537000      1.48773000      0.04030410
  O      7.07254000      1.56887000      0.52576900
  C     -3.26267000      3.28770000     -2.72114000
  O     -3.76555000      4.14200000     -3.62659000
  C     -0.26657800     -3.48252000     -4.64635000
  O      0.26726600     -4.34029000     -5.43705000
  C     -1.25308000     -2.38109000     -4.99386000
  O     -1.64047000     -1.99922000     -6.16518000
  C     -0.50320600     -0.07299500      5.72154000
  O     -0.57174100     -0.40795400      6.96629000
  C     -1.94900000      5.67155000      0.94485700
  O     -2.92588000      6.47739000      0.73231000
  C      1.40040000      5.45861000     -0.08830940
  O      1.49096000      6.73530000     -0.22945300
  C     -2.30779000     -2.61048000      4.58087000
  O     -2.75985000     -3.16775000      5.68032000
  C      5.58795000     -1.24738000      0.86909400
  O      6.74356000     -1.02062000      1.39149000
  C      2.12119000     -5.45746000     -1.02130000
  O      2.22917000     -6.73916000     -0.92757900
  C     -0.39067600      3.36631000     -4.38953000
  O     -0.78655800      4.08844000     -5.42649000
  C      2.70055000      5.10197000      0.68037300
  O      3.04850000      5.81792000      1.70758000
