#B3LYP/6-31+G(d) OPT FREQ

110, Energy = -12344.62048711 au

0 1
 Ni     -0.01775300     -3.91210000     -2.42894000
 Ni     -1.52635000     -0.17588400     -1.20381000
 Ni      0.23836500     -4.39776000      0.41796300
 Ni     -0.88161800      4.51017000     -0.25352200
 Ni     -1.44822000      2.46601000     -2.07870000
 Ni     -3.56721000      0.56123200      0.80701400
 Ni     -1.10466000     -0.91618500      1.35367000
 Ni     -0.28572300      3.70288000      2.28713000
 Ni      0.22318500     -1.13900000     -3.13515000
 Ni      2.97095000     -0.51628800     -0.66856100
 Ni      0.69113700     -1.70931000     -0.54389600
 Ni      2.27809000     -2.74807000     -2.54593000
 Ni      3.34885000      2.22387000     -1.87695000
 Ni      2.14813000     -0.45184800      3.81601000
 Ni      1.32274000      0.19527900      1.22370000
 Ni      2.55131000      0.22465200     -3.19317000
 Ni      0.95850500      3.72455000     -2.34893000
 Ni     -2.08461000     -2.10728000     -3.27878000
 Ni      3.45335000     -1.28996000      1.92326000
 Ni     -1.62365000     -2.78062000     -0.44632300
 Ni      3.69293000      1.30432000      1.27481000
 Ni      0.85826400      0.93804700     -1.36336000
 Ni     -2.26388000      0.35235100     -3.78887000
 Ni     -4.01008000     -1.25938000     -0.85276800
 Ni      2.19559000      2.02271000      3.29096000
 Ni     -0.32453000      1.00130000      3.03226000
 Ni      2.71794000     -3.15395000      0.25892500
 Ni     -1.34230000     -3.57846000      2.25993000
 Ni     -3.11137000      3.34424000     -0.14167900
 Ni      1.50341000      2.70916000      0.38208300
 Ni     -2.74248000      2.56580000      2.48746000
 Ni     -2.92764000     -0.45395200      3.38666000
 Ni      0.51647900      1.81952000     -3.85620000
 Ni     -0.92700300      1.73457000      0.51619000
 Ni     -3.72091000     -2.14654000      1.68365000
 Ni     -0.62139500     -1.67989000      3.91406000
 Ni     -4.05800000      1.49219000     -2.00351000
 Ni      1.13535000     -2.32327000      2.18056000
  C      2.73871000      3.00189000     -3.86035000
  O      3.44312000      3.67238000     -4.79419000
  C      2.62159000     -3.02104000      3.61858000
  O      2.79701000     -3.29655000      4.83484000
  C     -3.06577000     -3.78727000      3.32846000
  O     -3.64439000     -4.85982000      3.77589000
  C     -5.80128000     -2.30336000      0.24914000
  O     -7.02354000     -2.01396000      0.50162800
  C      1.29144000     -3.24983000     -4.34344000
  O      1.54094000     -3.73772000     -5.55592000
  C     -5.85527000      1.76283000     -1.46330000
  O     -6.78688000      2.46812000     -1.94754000
  C     -1.07820000      5.46681000      2.39039000
  O     -1.31338000      6.36383000      3.28906000
  C     -4.62080000      0.99670500     -3.78041000
  O     -5.79518000      0.77793400     -4.40871000
  C     -5.76116000      0.59971300     -0.53751000
  O     -6.97149000      0.23993300     -0.20858200
  C     -0.50365300      3.55550000     -4.43944000
  O     -0.14697700      4.32812000     -5.42419000
  C     -1.83610000      3.54960000     -3.70992000
  O     -2.80115000      4.27281000     -4.12965000
  C     -1.11766000     -2.63139000     -4.83412000
  O     -1.32976000     -2.99084000     -6.08131000
  C     -4.69483000      2.66248000      1.48965000
  O     -5.92132000      3.06396000      1.90850000
  C     -1.07680000      5.90426000     -1.58456000
  O     -1.75279000      6.97214000     -1.52816000
  C      0.28039600     -5.42504000      2.42336000
  O     -0.14612700     -6.44493000      3.07838000
  C     -5.23899000     -1.22460000      2.62820000
  O     -6.20290000     -1.71000000      3.33984000
  C     -3.01580000     -2.92352000      4.62717000
  O     -4.10372000     -2.90403000      5.58837000
  C      3.80634000      0.46547300      4.66146000
  O      4.25746000      0.20708700      5.79551000
  C     -3.24114000     -0.85672800     -5.00445000
  O     -4.25819000     -0.82959900     -5.83319000
  C     -3.57544000      5.06272000      2.14532000
  O     -4.58688000      5.80392000      1.88368000
  C      4.44621000      1.39077000      3.62052000
  O      5.65337000      1.80364000      3.87018000
  C      1.08024000      2.79822000      4.84842000
  O      1.41456000      3.09291000      6.05100000
  C      2.91896000     -4.23829000      2.61779000
  O      4.10332000     -4.72596000      2.69376000
  C     -1.36704000     -5.28333000     -2.32645000
  O     -2.04346000     -5.91211000     -3.25656000
  C     -4.01677000     -1.56769000      5.04026000
  O     -4.92735000     -0.73829000      5.43049000
  C     -3.43848000      4.17272000      3.37866000
  O     -4.00558000      4.59680000      4.46272000
  C     -1.32995000     -5.48970000     -0.84666500
  O     -1.99621000     -6.47165000     -0.40841300
  C     -4.40319000      3.55924000     -2.30829000
  O     -5.39083000      3.89027000     -3.10142000
  C     -5.27306000      0.12519700      1.91329000
  O     -6.38512000      0.71606600      1.98231000
  C      5.35588000      2.22078000     -2.93082000
  O      5.82872000      3.00134000     -3.83737000
  C     -3.64326000      4.65284000     -1.64653000
  O     -3.69801000      5.84770000     -2.06943000
  C     -1.57779000     -2.95434000      5.10317000
  O     -1.50394000     -3.79620000      6.04968000
  C     -2.24209000      5.57347000      1.31155000
  O     -2.56898000      6.65483000      0.67254800
  C     -0.21599300      5.47195000     -2.66712000
  O     -0.28173300      6.20996000     -3.73558000
  C      2.16458000     -4.81598000     -2.35898000
  O      2.75709000     -5.87682000     -2.90947000
  C      1.81051000     -5.44454000      2.27400000
  O      2.50662000     -6.53270000      2.25572000

