110
Energy = -12122.76770773 au
 Ni      0.15107200     -3.57962000     -2.16642000
 Ni     -1.37933000     -0.22451900     -1.20143000
 Ni      0.68538100     -4.48580000      0.24017200
 Ni     -0.40456200      4.09719000     -0.18791700
 Ni     -1.23262000      2.36255000     -2.17120000
 Ni     -3.18122000      0.56150500      0.80057900
 Ni     -0.93050800     -0.91085300      1.42149000
 Ni      0.02834360      3.80193000      2.46660000
 Ni      0.31798800     -1.03404000     -3.23805000
 Ni      3.07675000     -0.57228100     -0.60521400
 Ni      0.75046500     -1.68775000     -0.49351800
 Ni      2.40196000     -2.35120000     -2.62386000
 Ni      3.27436000      1.97173000     -1.34876000
 Ni      1.74481000     -0.39520600      3.64237000
 Ni      1.41572000      0.26604300      1.21067000
 Ni      2.63642000      0.14635500     -3.40916000
 Ni      1.51049000      3.66386000     -2.40833000
 Ni     -2.15485000     -2.04552000     -3.22917000
 Ni      3.73509000     -1.03595000      2.03546000
 Ni     -1.65252000     -2.97573000     -0.35951900
 Ni      3.83709000      1.57598000      1.40295000
 Ni      0.92589200      0.90941500     -1.36461000
 Ni     -1.84482000      0.40745400     -3.87132000
 Ni     -3.66540000     -1.31556000     -1.04441000
 Ni      1.95024000      2.22630000      3.06041000
 Ni     -0.39907600      1.11742000      3.42363000
 Ni      3.20452000     -3.16203000      0.21032000
 Ni     -1.18995000     -3.57874000      2.22375000
 Ni     -2.82235000      3.12982000      0.15146700
 Ni      1.74737000      2.86168000      0.48234400
 Ni     -2.44975000      2.81019000      2.86745000
 Ni     -2.71078000     -0.13079400      3.42741000
 Ni      0.64561800      1.68277000     -4.03571000
 Ni     -0.72611300      1.63847000      0.66377200
 Ni     -3.25698000     -2.09126000      1.76940000
 Ni     -0.65992500     -1.73510000      4.20139000
 Ni     -3.62724000      1.36587000     -1.93345000
 Ni      1.28304000     -2.44709000      2.09666000
  C     -1.22284000     -1.24489000     -5.32002000
  O     -1.56772000     -1.85441000     -6.39754000
  C      5.13729000      1.07355000      2.98085000
  O      5.90407000      1.85897000      3.65971000
  C      3.73911000     -4.33872000      1.92360000
  O      4.92052000     -4.75628000      2.17883000
  C      2.99306000     -3.85736000     -4.31165000
  O      3.17553000     -3.89973000     -5.58678000
  C      0.26557000     -0.87546300     -5.70601000
  O      0.56570400     -0.25375900     -6.78519000
  C     -3.30873000      1.79787000      4.63925000
  O     -3.41751000      2.18425000      5.88383000
  C      5.12275000     -0.34346400      3.30451000
  O      5.85571000     -0.91236200      4.19917000
  C     -0.69442600     -3.61560000      5.09939000
  O     -0.88772800     -4.37081000      6.11684000
  C      1.20764000      3.02681000      4.75111000
  O      1.78914000      3.25310000      5.87633000
  C     -1.77962000      3.82187000      4.29030000
  O     -2.51201000      4.55758000      5.07274000
  C     -3.79504000     -1.58588000     -4.46699000
  O     -4.63651000     -2.17760000     -5.21725000
  C     -0.78065400      0.97471500      5.43824000
  O     -1.02590000      1.75128000      6.44185000
  C     -0.66191600     -0.46096200      5.76212000
  O     -0.68937800     -0.78933100      7.01073000
  C     -6.00301000      1.33767000     -0.56741000
  O     -7.17203000      0.91331500     -0.20040700
  C     -5.83348000      1.95076000     -1.87981000
  O     -6.85863000      2.41356000     -2.49319000
  C      2.65480000      5.04881000      1.40323000
  O      3.15853000      6.17385000      0.99726500
  C      2.39499000      4.29138000     -3.94685000
  O      2.76813000      5.48212000     -4.27892000
  C     -5.21994000      1.10778000      1.05122000
  O     -6.15762000      1.08795000      2.01691000
  C      1.36238000      5.20844000      2.18986000
  O      1.19141000      6.38095000      2.69509000
  C     -2.73648000      2.88349000     -3.57255000
  O     -3.07817000      3.93088000     -4.30543000
  C     -1.94107000     -5.07955000     -0.12109400
  O     -2.79719000     -5.98254000     -0.45844600
  C      0.32674800     -4.46743000      4.34132000
  O      1.33649000     -4.84574000      5.06185000
  C     -0.29982300      3.57856000      4.95906000
  O     -0.35687200      4.01137000      6.15216000
  C      2.40381000      5.30456000     -1.36311000
  O      3.03647000      6.34194000     -1.74666000
  C     -0.25431600     -5.14594000      3.15002000
  O     -0.28279800     -6.36295000      3.54961000
  C     -0.72486000      3.08781000     -4.99461000
  O     -0.72482200      3.93052000     -5.94655000
  C      2.30118000     -5.14468000      1.91853000
  O      2.33503000     -6.40870000      2.13811000
  C     -2.76539000      4.65394000      1.96488000
  O     -3.36419000      5.75150000      2.41263000
  C      2.76721000      0.54170300     -5.64042000
  O      3.03272000     -0.11740300     -6.69448000
  C      1.68397000     -5.55634000     -1.23782000
  O      2.09901000     -6.76755000     -1.39011000
  C     -3.25357000     -2.59644000      3.82798000
  O     -4.06277000     -3.24657000      4.65849000
  C      1.17185000     -1.92704000     -5.04372000
  O      1.18862000     -2.81106000     -5.97328000
  C      2.66566000     -3.95690000      3.05242000
  O      3.15056000     -4.05452000      4.24532000
  C      5.06788000     -2.75634000     -0.50399200
  O      6.17044000     -3.39597000     -0.59887400
  C      3.72140000      3.88508000      1.19656000
  O      4.83023000      4.50036000      1.00296000
  C      2.66900000      3.00268000     -4.57428000
  O      3.51657000      2.94861000     -5.53750000
