110
Energy = -11917.00155032 au
 Ni      0.03528930     -3.97730000     -2.30139000
 Ni     -1.39899000     -0.24528300     -1.18681000
 Ni      0.52355400     -4.43752000      0.00438557
 Ni     -0.37300200      4.26036000     -0.25423400
 Ni     -1.10890000      2.31105000     -1.99825000
 Ni     -3.15889000      0.54589900      0.75082900
 Ni     -0.94352200     -0.88397700      1.32186000
 Ni      0.03988950      3.82849000      2.67162000
 Ni      0.32246800     -1.08293000     -3.18387000
 Ni      3.11279000     -0.49320500     -0.73047100
 Ni      0.72701800     -1.66930000     -0.59285000
 Ni      2.37477000     -2.27130000     -2.74308000
 Ni      3.59593000      1.77150000     -1.44842000
 Ni      1.99688000     -0.39336600      3.80555000
 Ni      1.44101000      0.30586800      1.21477000
 Ni      2.71805000      0.23868500     -3.51995000
 Ni      1.47389000      3.62987000     -2.05746000
 Ni     -1.89913000     -2.16703000     -3.19206000
 Ni      3.59574000     -1.00912000      1.88171000
 Ni     -1.62348000     -2.80811000     -0.43738600
 Ni      4.00707000      1.33318000      1.17079000
 Ni      1.00267000      0.91667800     -1.38413000
 Ni     -1.75784000      0.40953900     -3.69705000
 Ni     -3.80553000     -1.29661000     -0.97441200
 Ni      2.56570000      2.30592000      3.09952000
 Ni     -0.22892600      1.10746000      3.15271000
 Ni      2.74154000     -3.11649000      0.06765220
 Ni     -1.30033000     -3.50572000      1.99547000
 Ni     -3.15304000      2.97053000      0.04203980
 Ni      1.78303000      3.13595000      0.55122100
 Ni     -2.33002000      2.54143000      2.70741000
 Ni     -2.58092000     -0.20553100      3.15384000
 Ni      0.65482100      1.79396000     -4.13244000
 Ni     -0.73487900      1.70162000      0.57487000
 Ni     -3.39101000     -2.09497000      1.37606000
 Ni     -0.44079400     -1.80019000      4.03241000
 Ni     -3.66837000      1.18543000     -1.72990000
 Ni      1.21274000     -2.46191000      2.11022000
  C     -5.01734000      2.79002000      0.36451800
  O     -5.91759000      3.73097000      0.39245000
  C      3.88612000      0.97093100      5.11573000
  O      4.45960000      1.70463000      6.02249000
  C      2.05396000      5.42430000     -1.58425000
  O      2.45490000      6.53700000     -2.09154000
  C      1.90875000      5.40437000     -0.08611980
  O      2.33295000      6.41652000      0.59206900
  C     -5.59907000      1.50423000      0.72790200
  O     -6.79884000      1.37497000      1.16408000
  C      3.20611000      3.97384000      3.50209000
  O      3.78011000      4.67837000      4.40507000
  C     -1.01465000     -5.88582000     -0.78479700
  O     -1.62016000     -6.90697000     -0.28830000
  C     -1.15873000     -5.53541000     -2.17640000
  O     -1.75090000     -6.30973000     -3.01988000
  C     -3.13277000     -4.54918000      1.08218000
  O     -3.71482000     -5.68221000      1.09525000
  C      2.36837000     -5.58877000     -1.04117000
  O      3.38683000     -6.35601000     -0.95801200
  C      2.83268000      2.88369000     -4.16026000
  O      3.45134000      3.49288000     -5.10538000
  C      2.80328000      4.85224000      2.29797000
  O      3.83113000      5.30908000      1.63794000
  C      3.58854000     -0.45880100      5.19984000
  O      4.19233000     -1.10089000      6.13020000
  C      4.07588000      0.50791300     -5.31250000
  O      4.55151000      1.48331000     -5.99724000
  C      1.25078000      0.98416100     -6.03068000
  O      1.10397000      1.42474000     -7.29561000
  C     -3.49214000      4.51851000      2.65784000
  O     -3.92930000      5.37571000      3.50590000
  C      4.54547000      1.79056000      3.79159000
  O      5.20859000      2.87484000      3.99032000
  C      5.37911000      0.49110200     -1.95377000
  O      6.17639000     -0.08421570     -2.77414000
  C     -2.28470000     -2.59123000      5.12730000
  O     -2.45429000     -3.22309000      6.23227000
  C      0.12942200     -1.35480000     -5.65507000
  O     -0.41471700     -0.82437400     -6.68942000
  C      1.00374000     -3.16143000      4.60742000
  O      1.15046000     -4.01641000      5.57964000
  C      1.35921000      5.26940000      2.62592000
  O      1.50719000      6.41406000      3.19004000
  C     -0.23319900     -2.65467000     -4.88859000
  O     -0.12243800     -3.61157000     -5.74291000
  C      1.85633000     -4.61431000      2.38997000
  O      2.32515000     -5.33075000      3.35058000
  C     -2.78413000     -2.03859000     -5.39569000
  O     -2.47901000     -2.60433000     -6.51321000
  C     -5.96856000      1.57437000     -2.16911000
  O     -7.05758000      1.71292000     -1.49426000
  C      1.70213000     -0.81082400     -5.78240000
  O      2.49276000     -0.85599800     -6.79098000
  C      2.36074000     -1.96212000     -4.66817000
  O      2.72586000     -2.83583000     -5.53978000
  C     -1.70226000      5.52351000     -1.85289000
  O     -1.80385000      6.66247000     -2.44784000
  C      1.36689000     -5.63715000     -2.12064000
  O      1.27638000     -6.63972000     -2.92803000
  C      5.72675000      1.15010000     -0.68179400
  O      6.93055000      1.33287000     -0.28074500
  C      5.22415000      0.63237900      2.88060000
  O      6.23505000      0.35907000      3.62098000
  C     -1.05831000      2.85692000      4.42666000
  O     -1.22052000      3.25744000      5.72975000
  C     -5.53934000     -0.64553600      0.57768200
  O     -6.67650000     -1.10911000      1.00991000
  C     -0.91184400      3.24851000     -4.59575000
  O     -1.09439000      4.03300000     -5.58623000
  C     -1.11437000      5.72754000      2.47966000
  O     -1.47623000      6.59129000      3.35356000
