#B3LYP/6-31+G(d) OPT FREQ

110, Energy = -12534.98114278 au

0 1
 Ni     -0.06834620     -3.90658000     -2.38563000
 Ni     -1.44173000     -0.31201200     -1.31098000
 Ni      0.45684200     -4.56931000      0.42212700
 Ni     -0.24946000      4.29964000     -0.22054600
 Ni     -1.12567000      2.27353000     -2.03719000
 Ni     -3.39201000      0.41776100      0.68266000
 Ni     -0.99237800     -0.92437400      1.25055000
 Ni     -0.14119700      3.52941000      2.29647000
 Ni      0.45402800     -1.13156000     -3.45221000
 Ni      3.55400000     -0.44625500     -0.73754400
 Ni      0.69824700     -1.76925000     -0.62527000
 Ni      2.61487000     -2.15672000     -2.47004000
 Ni      3.51548000      1.94676000     -1.54062000
 Ni      2.14257000     -0.36581200      3.62652000
 Ni      1.52943000      0.14974000      1.15124000
 Ni      3.01859000      0.31606400     -3.51720000
 Ni      1.33210000      3.38518000     -2.42124000
 Ni     -2.32594000     -2.16400000     -3.19294000
 Ni      3.89151000     -1.21880000      1.87577000
 Ni     -1.80721000     -3.02351000     -0.57467900
 Ni      4.10580000      1.26740000      1.34537000
 Ni      1.06964000      0.77093700     -1.47751000
 Ni     -1.60913000      0.33100400     -3.93819000
 Ni     -3.99036000     -1.42426000     -1.10617000
 Ni      1.93716000      2.19652000      3.10050000
 Ni     -0.31756700      1.05863000      3.12944000
 Ni      3.08487000     -2.81017000      0.00485951
 Ni     -1.14284000     -3.38377000      2.11209000
 Ni     -3.07046000      2.94975000      0.00825907
 Ni      1.65869000      2.63128000      0.36070000
 Ni     -2.66002000      2.87981000      2.44313000
 Ni     -2.71096000     -0.33645000      3.10318000
 Ni      0.79509900      1.52438000     -4.06414000
 Ni     -0.78555200      1.59945000      0.53809600
 Ni     -3.41414000     -2.31742000      1.34702000
 Ni     -0.63498900     -1.62100000      3.88352000
 Ni     -3.70806000      1.07124000     -1.82452000
 Ni      1.21230000     -2.46850000      1.99464000
  C      3.28546000      1.81018000     -4.74607000
  O      3.97369000      1.69551000     -5.83232000
  C      4.24137000     -0.03816360      4.45562000
  O      4.37568000     -0.34740500      5.69522000
  C      4.78765000     -2.44694000     -1.67431000
  O      5.76264000     -3.25763000     -1.46600000
  C     -0.60530000      3.02879000      4.96954000
  O     -1.11847000      2.51851000      6.04477000
  C      1.61059000     -1.11610000     -5.51864000
  O      1.51996000     -2.04647000     -6.40300000
  C     -1.08799000     -2.44440000     -5.50385000
  O     -0.72807200     -1.96124000     -6.63584000
  C     -2.00332000     -4.50969000     -2.75923000
  O     -2.54569000     -5.67768000     -3.12894000
  C      1.16756000     -4.52214000      2.86754000
  O      1.46124000     -4.85171000      4.08317000
  C     -5.26252000      1.53436000     -0.16337900
  O     -6.12655000      2.45807000      0.08002660
  C      1.20847000     -5.58890000      1.81158000
  O      1.61545000     -6.80908000      1.80508000
  C      0.79013300      0.27384700     -5.94490000
  O      1.52333000      0.64632700     -6.93989000
  C      5.37412000     -0.44475100      3.28628000
  O      6.54767000     -0.97278500      3.33343000
  C     -0.77843900      0.41811500     -5.74285000
  O     -1.35581000      0.47218900     -6.89083000
  C     -3.72858000     -4.03944000     -0.49214100
  O     -4.26661000     -4.88732000     -1.30697000
  C     -5.44963000     -0.00439645      0.07378970
  O     -6.51597000     -0.55385700      0.54159400
  C      4.86262000      1.13711000      3.45965000
  O      5.54958000      2.17606000      3.77916000
  C     -0.95869400     -5.54426000     -0.51069700
  O     -1.50100000     -6.75281000     -0.48517400
  C      0.94971600      3.02201000      4.66834000
  O      1.64760000      3.41004000      5.67986000
  C     -4.28939000      3.88990000      1.98010000
  O     -4.86650000      4.97544000      2.42824000
  C     -4.12517000     -4.05266000      0.96849200
  O     -4.78680000     -4.88963000      1.68367000
  C     -1.65539000      4.22082000      4.67870000
  O     -2.19950000      4.74625000      5.70409000
  C     -2.53262000     -2.37095000     -5.13591000
  O     -3.31782000     -2.43717000     -6.14916000
  C     -1.98285000      4.64381000      3.24925000
  O     -2.53190000      5.80457000      3.08018000
  C      0.35770900     -4.61795000     -4.08180000
  O      0.82991000     -5.75117000     -4.47757000
  C      0.01792410     -3.63690000     -5.14007000
  O      0.31912900     -3.98291000     -6.33975000
  C     -2.48650000     -2.39660000      4.46778000
  O     -3.03068000     -2.94688000      5.51335000
  C      1.27231000      5.62351000     -0.39310900
  O      1.46514000      6.82507000      0.00770676
  C      3.04399000     -0.76828300     -5.05951000
  O      3.80413000     -0.83004500     -6.09885000
  C     -4.56398000     -0.85090500     -3.11276000
  O     -5.67741000     -1.02158000     -3.82550000
  C      2.72737000      3.10339000     -4.12244000
  O      3.15251000      4.19510000     -4.66518000
  C      6.17294000      0.82882800     -0.73567000
  O      7.16088000      0.05415170     -1.06980000
  C      5.37134000      1.57565000     -1.79586000
  O      6.14405000      1.84207000     -2.78892000
  C      4.81488000     -1.11718000     -2.50915000
  O      5.82629000     -0.73316200     -3.20845000
  C     -0.33906600      4.02993000     -3.54556000
  O     -0.74313100      5.07081000     -4.24346000
  C      5.34762000     -1.60103000      0.70891400
  O      6.66012000     -1.85323000      0.69636400
  C      5.88364000      1.07228000      0.71013200
  O      6.98882000      0.93120800      1.35495000

