#B3LYP/6-31+G(d) OPT FREQ

110, Energy = -12378.69701147 au

0 1
 Ni      0.33540400     -3.57545000     -2.49211000
 Ni     -1.42642000     -0.34564900     -1.26179000
 Ni      0.39553800     -4.79978000      0.33445100
 Ni     -0.49242200      4.07194000     -0.18497000
 Ni     -1.19706000      2.11228000     -1.95488000
 Ni     -3.25088000      0.48908800      0.80167900
 Ni     -1.01850000     -0.95364700      1.33794000
 Ni     -0.13429600      3.44110000      2.46612000
 Ni      0.38660100     -1.18174000     -3.28624000
 Ni      3.15760000     -0.50653600     -0.65864700
 Ni      0.76356100     -1.75228000     -0.56393600
 Ni      2.86863000     -2.60436000     -2.40703000
 Ni      3.51692000      1.89036000     -1.48302000
 Ni      1.73739000     -0.35319000      3.70555000
 Ni      1.40843000      0.26144000      1.19962000
 Ni      2.63461000     -0.05268010     -3.26089000
 Ni      1.20120000      3.25246000     -2.10094000
 Ni     -2.18794000     -2.10951000     -3.23601000
 Ni      3.62687000     -1.08452000      1.89010000
 Ni     -1.82883000     -3.01812000     -0.40766100
 Ni      3.91055000      1.59584000      0.93632500
 Ni      0.98848400      0.82020400     -1.32446000
 Ni     -1.99176000      0.19960500     -4.00019000
 Ni     -3.87195000     -1.33466000     -0.92329100
 Ni      2.22489000      2.27372000      2.82166000
 Ni     -0.32795500      1.01784000      3.21724000
 Ni      3.00181000     -3.27618000      0.17827200
 Ni     -1.57074000     -3.47584000      2.23061000
 Ni     -2.84888000      2.98776000      0.10502700
 Ni      1.70162000      2.92235000      0.43399300
 Ni     -2.52378000      2.62434000      2.84350000
 Ni     -2.71303000     -0.03843300      3.28144000
 Ni      0.48615100      1.27966000     -3.97579000
 Ni     -0.72640600      1.58526000      0.62738400
 Ni     -3.72398000     -1.95376000      1.86624000
 Ni     -0.55543800     -1.46153000      3.90707000
 Ni     -3.77160000      1.11605000     -1.64278000
 Ni      1.12628000     -2.48346000      2.05249000
  C      1.68613000     -6.12350000     -0.95828000
  O      1.93241000     -7.36586000     -0.74640900
  C      0.67371900     -3.67092000     -4.40356000
  O      1.45608000     -4.39123000     -5.14618000
  C     -3.86505000     -0.73619700     -4.28770000
  O     -4.73593000     -0.82729900     -5.28285000
  C     -1.48200000      0.82211600      5.64095000
  O     -1.86857000      1.13037000      6.81681000
  C     -2.71086000     -3.63472000      4.00864000
  O     -2.68498000     -4.26919000      5.12550000
  C     -2.14331000      2.23870000      4.88836000
  O     -3.25365000      2.55443000      5.53544000
  C     -3.00467000     -4.78011000      0.90666200
  O     -3.49613000     -5.84918000      1.44711000
  C      4.93761000     -2.83183000     -1.92853000
  O      5.90195000     -3.55969000     -1.51443000
  C     -5.44136000      1.06407000     -0.57879200
  O     -6.34548000      1.98035000     -0.65509800
  C      4.87856000     -1.73251000     -2.87905000
  O      5.83374000     -1.22381000     -3.55551000
  C     -6.02379000     -0.30975200     -0.16780200
  O     -7.27270000     -0.57343500     -0.36791100
  C      1.53581000     -0.88303000     -5.12784000
  O      2.08499000     -1.62386000     -6.03566000
  C      3.69379000      4.00261000      2.42976000
  O      4.36310000      4.47092000      3.41660000
  C     -3.93802000     -2.96071000      3.54717000
  O     -5.04105000     -3.06092000      4.24505000
  C     -3.05305000     -4.60496000     -0.52721400
  O     -3.62707000     -5.31159000     -1.42519000
  C      3.98816000     -4.55137000      1.27581000
  O      5.12740000     -4.88854000      1.78701000
  C     -3.44267000      4.41849000      2.38742000
  O     -3.87833000      5.39366000      3.10089000
  C      2.40583000     -4.34972000      3.13823000
  O      3.55445000     -4.52295000      3.72578000
  C      4.17260000      3.97227000      0.81572100
  O      5.14818000      4.48127000      0.17372300
  C     -0.84953300     -6.46284000      0.61020800
  O     -1.34320000     -7.31947000      1.40931000
  C     -0.88193200     -6.18433000     -0.77011100
  O     -1.37479000     -6.87199000     -1.75635000
  C      5.34984000      0.96830300     -0.96905000
  O      6.60191000      0.96028600     -1.40178000
  C     -1.74451000     -2.92728000     -4.92589000
  O     -2.47827000     -3.22182000     -5.93635000
  C      4.83963000     -0.56526500      3.77691000
  O      6.06051000     -0.61716600      4.17073000
  C     -0.32090000     -3.09402000     -5.39118000
  O     -0.03987350     -2.83410000     -6.64203000
  C     -5.09942000     -0.38169900      2.33778000
  O     -6.13213000      0.03175630      2.99473000
  C      2.79670000      4.78621000      1.27581000
  O      2.43207000      5.99464000      1.16910000
  C     -1.12560000     -0.29069300     -5.69120000
  O     -1.68173000     -0.78157200     -6.75394000
  C      0.42120900     -0.06052030     -5.92510000
  O      0.80943900      0.49099900     -7.02869000
  C      2.89172000     -5.47456000      1.85785000
  O      3.34374000     -6.72330000      1.73268000
  C      1.03112000     -4.15713000      3.68679000
  O      0.76616500     -4.84625000      4.71243000
  C      2.78883000     -4.67428000     -2.51174000
  O      3.53123000     -5.54370000     -3.13204000
  C      1.32016000     -5.69797000      1.75269000
  O      0.93448200     -6.66657000      2.48026000
  C     -0.24213000     -0.07108600      5.56692000
  O      0.24659100     -0.26286100      6.75244000
  C     -1.05487000      3.29636000      4.45325000
  O     -0.91517800      4.02137000      5.51674000
  C     -5.75787000     -1.22818000      1.17904000
  O     -6.61161000     -2.17064000      1.29066000

