110
Energy = -11972.80747363 au
 Ni      0.41814300     -3.68675000     -2.43038000
 Ni     -1.37850000     -0.21962100     -1.22767000
 Ni      0.49784600     -4.46507000      0.21067200
 Ni     -0.60914400      4.31631000     -0.09714770
 Ni     -1.27797000      2.36271000     -2.03667000
 Ni     -3.15359000      0.51001000      0.72551800
 Ni     -0.95151400     -0.87738100      1.36121000
 Ni     -0.30165100      3.71366000      2.42469000
 Ni      0.25707800     -1.13180000     -3.32157000
 Ni      3.21902000     -0.56248700     -0.78522000
 Ni      0.82307600     -1.69267000     -0.59102700
 Ni      2.77500000     -2.51622000     -2.77956000
 Ni      3.31250000      2.02783000     -1.53943000
 Ni      1.66668000     -0.57852200      3.74695000
 Ni      1.36370000      0.20228500      1.15162000
 Ni      2.60033000     -0.05516140     -3.46492000
 Ni      0.95608200      3.43482000     -2.28405000
 Ni     -2.20125000     -2.01458000     -3.06835000
 Ni      3.45130000     -1.18112000      1.77409000
 Ni     -1.53989000     -2.74818000     -0.43760200
 Ni      3.79539000      1.25995000      0.92749400
 Ni      0.96889500      0.83977400     -1.38448000
 Ni     -2.07842000      0.29839400     -3.79755000
 Ni     -3.80635000     -1.31083000     -1.07216000
 Ni      1.97893000      2.05249000      2.86365000
 Ni     -0.39362300      1.00516000      3.24208000
 Ni      3.16344000     -3.24874000     -0.21255600
 Ni     -1.09644000     -3.40882000      2.07890000
 Ni     -2.91300000      3.24326000     -0.15928500
 Ni      1.54391000      2.70441000      0.36942900
 Ni     -2.46954000      2.56335000      2.42938000
 Ni     -2.76283000     -0.35277700      3.35527000
 Ni      0.44226000      1.31521000     -3.98908000
 Ni     -0.76726900      1.66124000      0.55498300
 Ni     -3.47490000     -1.87956000      1.48438000
 Ni     -0.70220200     -1.61701000      4.15831000
 Ni     -3.58613000      1.39125000     -1.94422000
 Ni      1.19103000     -2.40926000      2.06883000
  C     -4.12115000      0.11140100     -4.60196000
  O     -5.10409000      0.67673900     -5.19337000
  C      3.46514000     -2.12894000     -4.79311000
  O      3.92758000     -2.76847000     -5.78017000
  C      4.65484000     -3.04638000     -2.38665000
  O      5.49393000     -3.11160000     -3.34716000
  C      3.49877000     -5.09671000     -0.67316300
  O      4.32846000     -5.74307000     -1.39884000
  C      4.32996000      2.90819000     -3.46772000
  O      5.18726000      3.72188000     -3.98398000
  C     -5.93968000     -0.61885500     -0.34093300
  O     -7.21772000     -0.79090800     -0.30163700
  C      0.14918100      0.03883990     -5.65449000
  O      0.41605700      0.20506000     -6.91764000
  C     -1.85612000      4.16340000     -3.60712000
  O     -2.51621000      5.00906000     -4.33196000
  C      1.14274000     -5.65996000     -1.92767000
  O      1.63868000     -6.78253000     -2.51906000
  C     -0.60088700      2.73344000      4.66717000
  O     -0.69147000      3.01764000      6.03726000
  C      2.28168000     -5.58709000      1.71610000
  O      3.37931000     -6.00514000      2.25376000
  C      5.57848000      0.14304000     -0.60758500
  O      6.77427000      0.47781200     -0.25099600
  C      5.51483000     -0.78938600     -1.67671000
  O      6.51972000     -1.29685000     -2.28306000
  C     -0.16760400      0.21365700      5.73870000
  O      0.36230800      0.75469000      6.77254000
  C      0.94247300     -5.39558000      2.31480000
  O      0.76545300     -6.10260000      3.35724000
  C     -0.75105200      5.26125000      4.08806000
  O     -1.35722000      6.38762000      4.25559000
  C     -5.77065000      1.77729000     -1.08772000
  O     -7.04968000      1.77156000     -1.24899000
  C      1.23549000     -2.55936000     -5.25872000
  O      1.18038000     -2.84931000     -6.50853000
  C     -1.63036000     -0.15446500      5.74012000
  O     -2.37003000     -0.00865654      6.77357000
  C     -2.01056000     -3.09371000      5.05523000
  O     -2.08065000     -4.17890000      5.72808000
  C     -3.08721000     -2.16486000      4.80900000
  O     -4.18535000     -2.30315000      5.45296000
  C     -1.30612000     -5.69512000     -0.47682800
  O     -1.65227000     -6.92238000     -0.49239800
  C      1.43200000     -3.00689000      4.29169000
  O      1.93579000     -4.00087000      5.04326000
  C      2.65615000     -5.99798000      0.13743800
  O      2.47698000     -7.24669000     -0.07856870
  C      1.60468000     -3.73924000     -4.30067000
  O      2.03814000     -4.70814000     -5.03891000
  C     -0.36791600      4.38437000     -3.63092000
  O      0.03721110      5.28961000     -4.46929000
  C     -3.20056000      4.75474000      2.41980000
  O     -3.95226000      5.20385000      3.34965000
  C     -1.93775000      5.52813000      1.62497000
  O     -1.69146000      6.76651000      1.92471000
  C     -5.09974000     -0.55601100      2.23027000
  O     -6.37555000     -0.56485300      2.44722000
  C     -1.71967000      5.83460000     -1.57058000
  O     -1.81288000      6.83952000     -2.37110000
  C      4.98768000     -3.23004000     -0.98423500
  O      6.18900000     -3.52454000     -0.56765400
  C     -0.30376100     -1.38085000     -5.43177000
  O     -1.01240000     -2.11806000     -6.18504000
  C     -3.25572000      3.42146000     -2.85452000
  O     -4.30466000      4.00704000     -3.38700000
  C     -3.94217000     -1.32534000     -4.39511000
  O     -4.78396000     -2.09348000     -4.99570000
  C     -3.34856000      5.22095000      0.85441500
  O     -4.19053000      6.10976000      0.43125900
  C      2.43415000     -1.13428000     -5.30380000
  O      2.53048000     -0.52796500     -6.46203000
