#B3LYP/6-31+G(d) OPT FREQ

110, Energy = -12095.06833381 au

0 1
 Ni      0.11673700     -3.41552000     -2.17124000
 Ni     -1.40463000     -0.20963300     -1.17517000
 Ni      0.71332400     -4.41471000      0.58760300
 Ni     -0.43466500      4.51433000     -0.35737600
 Ni     -1.23257000      2.49217000     -2.10425000
 Ni     -3.46394000      0.62434000      0.69464600
 Ni     -0.97996200     -0.86114200      1.40728000
 Ni     -0.07245490      3.64269000      2.41227000
 Ni      0.29070600     -1.07385000     -3.31654000
 Ni      3.34316000     -0.54586700     -0.67680400
 Ni      0.84626200     -1.64660000     -0.46512600
 Ni      2.77648000     -2.40935000     -2.37481000
 Ni      3.62677000      1.85573000     -1.43786000
 Ni      2.04158000     -0.43058800      4.07071000
 Ni      1.42529000      0.23836700      1.29266000
 Ni      2.59572000      0.07098210     -3.32166000
 Ni      1.33953000      3.52411000     -1.98203000
 Ni     -2.23379000     -2.07903000     -3.26434000
 Ni      3.53355000     -1.32787000      2.06180000
 Ni     -1.66134000     -2.77083000     -0.38557100
 Ni      3.73455000      1.34718000      1.27807000
 Ni      1.00615000      0.91871000     -1.32141000
 Ni     -1.93565000      0.31180600     -3.66306000
 Ni     -3.87737000     -1.20677000     -1.25441000
 Ni      2.22753000      2.46233000      3.04386000
 Ni     -0.23208600      1.08018000      3.37854000
 Ni      3.00102000     -3.37995000      0.35894400
 Ni     -1.15918000     -3.55649000      2.08773000
 Ni     -3.04139000      3.27605000     -0.02837010
 Ni      1.84494000      3.05034000      0.47726000
 Ni     -2.55785000      2.47039000      2.61746000
 Ni     -2.97385000     -0.26599600      3.31763000
 Ni      0.56102900      1.47182000     -4.02839000
 Ni     -0.74938700      1.73664000      0.55870800
 Ni     -3.32710000     -2.21603000      1.36695000
 Ni     -0.66494000     -1.37422000      4.10450000
 Ni     -3.74729000      1.16586000     -1.88547000
 Ni      1.25624000     -2.48168000      2.28443000
  C      0.41983700     -5.18129000      2.63195000
  O      0.20709000     -6.39892000      3.01336000
  C     -5.56599000      0.61378500     -0.01633370
  O     -6.70142000      0.01817100      0.03296210
  C      2.43623000     -5.66382000      0.83022500
  O      2.73445000     -6.44680000      1.82525000
  C      5.39161000     -0.20993400     -1.37024000
  O      6.41972000     -0.91372800     -1.02935000
  C      4.00038000      0.82579100      4.80355000
  O      4.98450000      0.33751200      5.49603000
  C      4.64975000     -3.17026000     -2.86399000
  O      5.33646000     -4.19083000     -3.22769000
  C      1.43890000     -4.28428000      3.32651000
  O      2.04240000     -4.76025000      4.35638000
  C      5.00225000     -1.77930000     -2.91022000
  O      5.96566000     -1.25028000     -3.57436000
  C      3.27985000      4.29778000      1.25895000
  O      4.14334000      5.11252000      0.75838700
  C      0.39559800      3.11229000      4.57170000
  O      0.21072900      3.66766000      5.76363000
  C     -5.84023000      0.70604000     -2.62526000
  O     -6.45871000      0.71267400     -3.74214000
  C      0.55300500      5.81501000      1.15892000
  O      1.24535000      6.89357000      1.14066000
  C      2.88983000      4.30975000      2.70411000
  O      3.08605000      5.28214000      3.52298000
  C      2.61288000      0.84732400      5.82987000
  O      3.04789000      0.83724800      7.04629000
  C     -1.42862000     -2.16495000     -5.07042000
  O     -1.56253000     -2.83354000     -6.17031000
  C     -2.68974000     -1.89829000      4.83524000
  O     -3.31720000     -2.52696000      5.79357000
  C     -1.91557000      5.02473000     -1.88253000
  O     -2.15857000      6.22970000     -2.22273000
  C     -2.26763000      3.94118000      4.21976000
  O     -2.54635000      3.99712000      5.46013000
  C     -1.33240000      3.60791000     -4.04365000
  O     -1.09619000      4.28356000     -5.09101000
  C     -2.42716000      4.20404000     -3.15309000
  O     -3.62896000      4.29055000     -3.60585000
  C     -3.38126000      4.75663000      1.31299000
  O     -4.05018000      5.85263000      1.35907000
  C      1.92231000      5.25355000     -1.03556000
  O      2.68071000      6.32739000     -1.20233000
  C     -3.35110000     -4.26143000      0.95605100
  O     -4.22028000     -5.24767000      0.86226800
  C     -4.70236000      0.75732600      3.01725000
  O     -5.91615000      0.69260200      3.50194000
  C      2.06652000      1.32673000     -5.89495000
  O      2.01314000      0.93538400     -7.12226000
  C      4.59968000     -2.23569000      3.77915000
  O      5.43821000     -2.30304000      4.74076000
  C     -5.25377000      2.08623000      0.17857000
  O     -6.11550000      2.96978000      0.51940400
  C      2.12641000     -2.27697000      5.26639000
  O      3.05317000     -2.77372000      5.98702000
  C      4.92225000     -4.45742000      0.83297200
  O      5.19946000     -5.49017000      1.54562000
  C      5.45357000      1.22975000     -1.69803000
  O      6.52058000      1.91158000     -1.93588000
  C      3.86345000     -3.28335000      3.14227000
  O      4.02767000     -4.54576000      3.30733000
  C     -4.16002000     -1.19514000     -3.66562000
  O     -5.14052000     -1.44752000     -4.52865000
  C      1.03010000      0.19494300      6.08655000
  O      1.01108000     -0.28952100      7.28001000
  C     -0.36119000      0.50355400      5.39552000
  O     -1.27713000      0.94875700      6.18970000
  C      4.41811000      1.80420000      3.69655000
  O      5.52078000      2.42824000      3.76799000
  C      1.15279000     -1.00706000     -5.12462000
  O      1.08855000     -1.59121000     -6.29390000

