#B3LYP/6-31+G(d) OPT FREQ

110, Energy = -12147.68182356 au

0 1
 Ni      0.24170700     -3.47614000     -2.41759000
 Ni     -1.35686000     -0.20577600     -1.24626000
 Ni      0.61661700     -4.23420000      0.51880300
 Ni     -0.81214900      4.39786000     -0.30762300
 Ni     -1.25102000      2.33668000     -1.94337000
 Ni     -3.35834000      0.59942800      0.74110700
 Ni     -0.92434900     -0.87465400      1.39713000
 Ni      0.12032100      3.61030000      2.23629000
 Ni      0.40836400     -1.05156000     -3.30484000
 Ni      3.27687000     -0.51357900     -0.73896300
 Ni      0.81684600     -1.64440000     -0.59072200
 Ni      2.79847000     -2.29536000     -2.58022000
 Ni      3.37456000      2.28950000     -1.37377000
 Ni      1.75018000     -0.48097300      3.67952000
 Ni      1.46583000      0.30874300      1.18275000
 Ni      2.70513000      0.37428100     -3.61432000
 Ni      1.23687000      3.37295000     -2.00457000
 Ni     -2.07666000     -2.19107000     -3.20085000
 Ni      3.86089000     -0.98633300      1.80302000
 Ni     -1.52854000     -2.70396000     -0.37217900
 Ni      4.02224000      1.41072000      1.18694000
 Ni      1.03888000      0.88563800     -1.31464000
 Ni     -2.26860000      0.32782700     -3.79662000
 Ni     -3.68242000     -1.32995000     -1.15547000
 Ni      2.13961000      2.44914000      3.01489000
 Ni     -0.32697800      1.07534000      3.44122000
 Ni      2.84761000     -3.07562000      0.27019100
 Ni     -1.24730000     -3.41399000      2.42983000
 Ni     -3.13847000      3.33249000     -0.04219220
 Ni      1.92006000      3.29053000      0.51838300
 Ni     -2.41103000      2.66027000      2.45597000
 Ni     -2.62816000     -0.10251800      3.25675000
 Ni      0.50826800      1.41783000     -3.79592000
 Ni     -0.73325100      1.71923000      0.56466500
 Ni     -3.46509000     -1.94083000      1.49949000
 Ni     -0.67284800     -1.76562000      4.42408000
 Ni     -3.67556000      1.09035000     -1.93010000
 Ni      1.25512000     -2.46673000      2.13579000
  C     -5.21892000     -0.79075500      2.24035000
  O     -6.46492000     -1.03983000      2.35877000
  C     -2.72260000      4.72893000     -2.16287000
  O     -2.96576000      4.75448000     -3.42754000
  C      5.44938000     -0.44116600      0.18753900
  O      6.62333000     -0.03734820      0.55253300
  C     -2.55392000      2.40152000      4.79378000
  O     -2.71751000      3.23133000      5.74931000
  C      2.95730000      4.81784000     -0.36594600
  O      3.17604000      6.06194000     -0.10221700
  C     -2.00354000     -2.79603000      5.20305000
  O     -2.25534000     -2.78066000      6.47301000
  C     -1.57667000     -2.22692000     -5.35850000
  O     -1.74444000     -3.09774000     -6.26414000
  C     -2.66866000      4.89152000      1.49520000
  O     -3.29896000      6.00293000      1.79436000
  C      3.89019000      4.16857000     -1.36795000
  O      4.73698000      5.00086000     -1.87572000
  C      0.90106000     -3.74980000     -4.38146000
  O      0.81651400     -4.83696000     -5.14403000
  C     -3.89102000      0.26802800     -4.72122000
  O     -4.20975000      0.22052400     -5.96963000
  C      2.50290000     -4.39590000      2.19298000
  O      3.49239000     -4.82811000      2.89012000
  C      5.61199000     -1.66607000     -0.75730200
  O      6.53205000     -2.55017000     -0.71019000
  C     -4.20573000     -2.54873000     -4.05126000
  O     -4.69947000     -2.61409000     -5.23975000
  C      4.15108000      3.34163000      2.11417000
  O      4.80473000      4.48181000      2.25662000
  C      4.51791000     -3.25550000     -3.61251000
  O      5.52297000     -4.09276000     -3.70589000
  C      3.21670000      2.95821000     -4.40309000
  O      3.53385000      4.14446000     -4.73929000
  C      4.98685000      0.23690000      3.17742000
  O      6.03961000      0.10297600      3.94041000
  C      2.11693000      4.54227000      3.57570000
  O      2.59553000      5.40458000      4.40262000
  C     -2.68220000     -3.54204000      4.15270000
  O     -3.74348000     -4.22211000      4.41786000
  C      1.14460000     -2.79800000      4.80087000
  O      1.29610000     -3.69096000      5.71438000
  C      0.58994100      2.18220000      4.92617000
  O      0.27648900      2.46121000      6.16511000
  C      1.59694000     -0.68430300     -5.10732000
  O      1.52564000     -0.26277900     -6.33274000
  C     -4.30551000      4.25761000     -1.66881000
  O     -4.98585000      5.34808000     -1.84132000
  C     -5.08299000      3.36370000     -0.70631700
  O     -6.27629000      3.11306000     -0.32100500
  C     -1.70375000      5.66371000     -1.39274000
  O     -1.77714000      6.88365000     -1.79420000
  C      3.64003000     -3.25080000     -4.71388000
  O      3.52659000     -3.64481000     -5.92391000
  C      1.31500000     -5.47617000      2.39086000
  O      1.48417000     -6.74592000      2.23028000
  C     -1.03745000     -0.01685370      5.39802000
  O     -1.06280000      0.21331700      6.72015000
  C      0.06165480     -4.99683000      3.18914000
  O     -0.00404050     -5.69672000      4.25365000
  C     -4.86112000      0.14909600     -3.61536000
  O     -6.01843000     -0.39051500     -3.76250000
  C      1.88424000      5.06687000      2.16641000
  O      2.34174000      6.22276000      1.83244000
  C     -5.23383000      1.58399000      0.82629100
  O     -6.35455000      1.27509000      1.39810000
  C      3.45820000      1.63507000     -4.86058000
  O      4.04147000      1.45990000     -6.00721000
  C      4.85006000     -2.08004000     -2.41229000
  O      5.88569000     -1.62573000     -3.02698000
  C      1.42844000     -2.31523000     -5.24870000
  O      1.48165000     -2.77722000     -6.44899000

