110
Energy = -11695.03737139 au
 Ni      0.03143410     -3.76394000     -2.25380000
 Ni     -1.41030000     -0.24281000     -1.17687000
 Ni      0.56419900     -4.37882000      0.28380400
 Ni     -0.54796700      4.22200000     -0.16051100
 Ni     -1.22260000      2.30031000     -1.95423000
 Ni     -3.21286000      0.53364600      0.68831300
 Ni     -0.95741000     -0.89765100      1.31811000
 Ni     -0.05595220      3.49099000      2.23642000
 Ni      0.26148200     -0.98896900     -2.98226000
 Ni      3.26101000     -0.55417100     -0.67694300
 Ni      0.74200900     -1.67244000     -0.51017200
 Ni      2.47334000     -2.33458000     -2.35498000
 Ni      3.43301000      1.94938000     -1.48845000
 Ni      2.04546000     -0.50603700      3.85649000
 Ni      1.41126000      0.20481000      1.18336000
 Ni      2.82281000      0.16430600     -3.15801000
 Ni      1.20079000      3.33610000     -2.08708000
 Ni     -2.15666000     -2.35739000     -3.01744000
 Ni      3.56138000     -1.20010000      1.80550000
 Ni     -1.68130000     -2.87854000     -0.43951300
 Ni      3.99263000      1.26832000      1.04291000
 Ni      0.98085500      0.85525900     -1.29048000
 Ni     -2.03285000      0.31234300     -3.72628000
 Ni     -3.72599000     -1.43913000     -1.06520000
 Ni      2.10236000      2.00080000      2.87489000
 Ni     -0.28332300      0.95387200      3.12155000
 Ni      2.86312000     -3.29495000      0.10661700
 Ni     -1.05371000     -3.54378000      2.21132000
 Ni     -2.99948000      3.09875000     -0.06252230
 Ni      1.66728000      2.77003000      0.42007600
 Ni     -2.38561000      2.32962000      2.44128000
 Ni     -2.66904000     -0.26776200      3.24999000
 Ni      0.57120600      1.52495000     -3.82499000
 Ni     -0.73828800      1.61647000      0.53378000
 Ni     -3.32209000     -2.11041000      1.36198000
 Ni     -0.49742100     -1.62017000      3.94980000
 Ni     -3.68227000      1.15001000     -1.76195000
 Ni      1.23211000     -2.37252000      2.03367000
  C     -3.97704000     -3.66275000     -3.49129000
  O     -5.04571000     -4.22865000     -3.84504000
  C     -3.23909000     -4.57646000     -0.89247200
  O     -3.41728000     -5.81938000     -1.09483000
  C     -4.64356000     -0.22892200     -4.05412000
  O     -5.88566000     -0.48945700     -4.24674000
  C     -0.30054400     -5.22160000      3.24712000
  O     -0.53371300     -6.13352000      4.15108000
  C      2.80790000     -2.69269000      4.27893000
  O      3.72410000     -3.27471000      5.02426000
  C      4.19308000      2.27699000     -3.88607000
  O      4.87550000      2.92267000     -4.75485000
  C      1.57719000     -3.60121000      4.17974000
  O      1.42034000     -4.32716000      5.23178000
  C      2.92411000     -4.38995000      2.29620000
  O      3.86534000     -4.97384000      2.99803000
  C     -3.61876000     -1.70753000      4.85839000
  O     -4.65294000     -1.85547000      5.60189000
  C     -1.48941000     -2.29629000     -5.30824000
  O     -1.54318000     -2.91035000     -6.44090000
  C     -1.25152000      2.32286000      4.95808000
  O     -1.26201000      2.59829000      6.21389000
  C      4.15672000      0.19829900      4.56552000
  O      4.74719000     -0.14849500      5.65094000
  C     -2.57901000     -4.74800000     -3.04102000
  O     -3.20495000     -5.71730000     -3.71132000
  C     -5.68101000      1.87094000     -0.61710600
  O     -6.84978000      1.97551000     -1.11336000
  C      1.47727000     -5.55763000     -2.21583000
  O      2.27708000     -6.36592000     -2.98411000
  C     -2.65366000      4.29333000     -2.54180000
  O     -3.07043000      5.13416000     -3.42884000
  C     -5.26026000      2.79262000      0.65128900
  O     -6.06812000      3.65659000      1.17726000
  C      1.96481000      3.17163000     -4.99504000
  O      2.55740000      3.59256000     -6.05994000
  C      2.71004000     -5.99964000      0.10122500
  O      2.85326000     -7.27167000      0.23748700
  C      3.52601000     -5.19367000     -0.73814300
  O      4.36948000     -5.78181000     -1.50851000
  C     -2.32307000      5.48779000      1.21073000
  O     -2.80611000      6.63851000      1.54331000
  C      5.97517000      1.16472000      0.28209200
  O      7.20399000      1.12026000      0.59213000
  C      0.51646100     -6.47052000     -0.96941900
  O      0.99763300     -7.66895000     -1.28522000
  C     -0.64323900     -6.27133000     -0.11504700
  O     -1.57473000     -7.12710000      0.03567300
  C     -5.49813000      1.21557000      0.86058100
  O     -6.47639000      0.72897900      1.52238000
  C      4.78999000      1.15104000      3.75022000
  O      5.87824000      1.76574000      4.00057000
  C     -2.50970000     -2.56505000      5.07688000
  O     -2.63085000     -3.45674000      5.99388000
  C      5.82444000      0.19649300     -0.90350600
  O      6.67360000      0.53904700     -1.86443000
  C      0.48109700     -0.21551200      5.89824000
  O      0.39968500      0.13931900      7.12500000
  C     -4.22644000     -3.98289000     -0.04010750
  O     -5.21593000     -4.79163000      0.13534800
  C      4.94980000     -0.94470500     -2.60608000
  O      6.05067000     -1.43900000     -3.06639000
  C     -1.36496000     -5.36885000     -2.57922000
  O     -1.37576000     -6.65401000     -2.53473000
  C      5.53427000     -1.04848000     -0.06185310
  O      6.70629000     -1.60790000     -0.03462280
  C      1.96087000      5.21592000      1.01048000
  O      2.76609000      6.21517000      1.15481000
  C      1.17866000     -4.91896000      3.17821000
  O      1.74398000     -6.13534000      3.25442000
  C     -3.73877000     -0.07561180     -5.11233000
  O     -4.16654000     -0.14380200     -6.32488000
