#B3LYP/6-31+G(d) OPT FREQ

110, Energy = -12341.69332599 au

0 1
 Ni      0.25415500     -3.65980000     -2.40592000
 Ni     -1.40179000     -0.30503900     -1.18700000
 Ni      0.61051100     -4.48996000      0.28192600
 Ni     -0.71900200      4.30051000      0.00592177
 Ni     -1.20202000      2.23808000     -1.81351000
 Ni     -3.27328000      0.48171500      0.74775700
 Ni     -0.92922400     -0.93266800      1.31472000
 Ni     -0.14241900      3.53839000      2.46728000
 Ni      0.50063900     -1.03234000     -3.12212000
 Ni      3.57228000     -0.72191700     -0.77304100
 Ni      0.87146600     -1.75975000     -0.61017400
 Ni      2.66118000     -2.55870000     -2.77079000
 Ni      3.60993000      2.30135000     -1.34344000
 Ni      1.62819000     -0.33051000      3.91405000
 Ni      1.47669000      0.18766900      1.19717000
 Ni      2.92369000      0.19866800     -3.17049000
 Ni      1.23357000      3.52801000     -2.04026000
 Ni     -2.06608000     -2.21415000     -3.36828000
 Ni      3.52114000     -1.45527000      1.95656000
 Ni     -1.57673000     -2.96113000     -0.56888200
 Ni      3.94782000      1.15100000      1.10221000
 Ni      1.09546000      0.82671500     -1.27611000
 Ni     -1.77924000      0.30356900     -3.65820000
 Ni     -3.86774000     -1.33515000     -1.40831000
 Ni      2.00032000      2.02333000      3.04926000
 Ni     -0.36809900      1.07018000      3.12074000
 Ni      3.05773000     -3.48093000     -0.03743650
 Ni     -1.40338000     -3.52893000      1.99168000
 Ni     -3.03089000      3.10035000      0.20050200
 Ni      1.83838000      2.91659000      0.40781000
 Ni     -2.42587000      2.70706000      2.92423000
 Ni     -2.65192000      0.02240400      3.25058000
 Ni      0.59757000      1.46114000     -3.69594000
 Ni     -0.76212400      1.66544000      0.63032400
 Ni     -3.36745000     -2.23802000      1.32224000
 Ni     -0.63022100     -1.57948000      4.00525000
 Ni     -3.93651000      1.09425000     -1.76032000
 Ni      1.26678000     -2.52094000      1.91493000
  C     -1.03271000     -1.92599000     -5.07896000
  O     -1.56178000     -2.01341000     -6.24967000
  C     -5.24151000      0.38889000      1.12507000
  O     -6.24470000     -0.06126340      1.78403000
  C     -2.04787000      5.53340000      0.86790600
  O     -1.99427000      6.76206000      1.23222000
  C      0.53596700     -2.02518000     -5.30213000
  O      1.04623000     -1.64126000     -6.41320000
  C     -1.76555000     -5.10410000     -1.18990000
  O     -2.89829000     -5.64775000     -1.49448000
  C      5.63070000      2.07817000     -1.77236000
  O      6.50581000      2.21692000     -2.69877000
  C      1.30389000     -6.18939000     -0.54938300
  O      1.36281000     -7.46353000     -0.38153300
  C     -2.89274000      2.03962000      4.63114000
  O     -3.00567000      2.55077000      5.84506000
  C      6.23826000      1.60062000     -0.49745200
  O      7.32798000      2.06526000      0.00835295
  C      4.89429000     -2.91100000     -2.70568000
  O      5.88201000     -2.47717000     -3.42112000
  C      6.00005000      0.61277300      1.67742000
  O      7.19807000      0.64005200      2.12423000
  C      2.86980000     -4.28650000      2.02580000
  O      2.90293000     -5.51510000      2.42816000
  C      4.88027000      0.12554200     -3.41599000
  O      5.58251000      0.50062900     -4.42872000
  C     -4.04918000     -2.34038000     -4.12504000
  O     -4.43081000     -2.58839000     -5.34249000
  C      2.53606000     -5.25097000     -0.68725800
  O      3.51228000     -6.08438000     -0.88291400
  C     -5.46609000      1.79993000     -0.95260100
  O     -6.60352000      2.12946000     -1.45746000
  C      1.32006000      1.52420000      5.33933000
  O      1.67811000      2.40154000      6.20779000
  C     -3.24284000     -4.23312000      1.45569000
  O     -3.97508000     -5.36112000      1.39466000
  C     -0.71849900     -5.99634000     -0.59217800
  O     -1.02327000     -7.15676000     -0.11557600
  C      5.20534000     -0.45433700     -2.11474000
  O      6.47929000     -0.71048000     -2.04207000
  C      3.59837000     -3.21733000      2.88010000
  O      4.22737000     -3.50000000      3.96742000
  C      1.43775000     -5.24929000     -2.96752000
  O      1.18327000     -6.53163000     -3.10125000
  C     -3.32302000      4.37006000      2.74548000
  O     -3.56939000      5.26191000      3.63648000
  C     -0.09777430      5.10676000     -3.12341000
  O     -0.03333740      5.79513000     -4.21134000
  C      2.76253000     -4.89482000     -3.20643000
  O      3.93655000     -5.52552000     -3.59646000
  C     -0.89049300      3.60195000      4.28895000
  O     -0.84646400      4.21149000      5.48361000
  C     -5.70452000      1.71308000      0.55706300
  O     -6.34620000      2.63448000      1.20235000
  C      4.78442000     -3.01362000     -1.14292000
  O      5.96240000     -3.29599000     -0.70846900
  C     -3.46569000      5.01882000      1.33534000
  O     -4.55991000      5.67807000      1.06641000
  C      0.64329900      0.23361200      5.70710000
  O      0.20996900     -0.16851300      6.84686000
  C     -2.18772000     -2.77710000      4.92112000
  O     -2.37664000     -3.16473000      6.12169000
  C     -5.01263000     -0.86028700     -2.78921000
  O     -6.13477000     -1.19178000     -3.43157000
  C      4.44655000     -4.11030000     -3.72047000
  O      5.00585000     -3.99160000     -4.87933000
  C      6.07107000      0.14735200      0.25454200
  O      6.66439000     -0.96956600     -0.00877909
  C      3.18738000      4.04775000     -0.29501100
  O      3.85489000      5.19061000      0.06266780
  C      1.36384000     -3.11484000     -4.47082000
  O      1.93316000     -3.82948000     -5.38019000

