#B3LYP/6-31+G(d) OPT FREQ

110, Energy = -11885.78045307 au

0 1
 Ni      0.02901650     -3.77045000     -2.19650000
 Ni     -1.41474000     -0.25145800     -1.14807000
 Ni      0.47631500     -4.28102000      0.26387800
 Ni     -0.46955400      4.35012000     -0.30963900
 Ni     -1.22674000      2.36624000     -1.98414000
 Ni     -3.25842000      0.52159500      0.74761600
 Ni     -0.99139600     -0.92466900      1.27373000
 Ni      0.00657913      3.61363000      2.16954000
 Ni      0.31045800     -0.99284900     -2.96746000
 Ni      3.13141000     -0.46296300     -0.71755800
 Ni      0.73217700     -1.68894000     -0.52536500
 Ni      2.64300000     -2.33083000     -2.38949000
 Ni      3.47668000      1.93475000     -1.53236000
 Ni      1.82677000     -0.39568400      3.60831000
 Ni      1.39780000      0.22882900      1.15169000
 Ni      2.69506000      0.33956400     -3.24127000
 Ni      1.11260000      3.48611000     -2.12495000
 Ni     -2.17131000     -2.32801000     -2.92569000
 Ni      3.57004000     -1.19925000      1.72554000
 Ni     -1.77006000     -3.01047000     -0.46591300
 Ni      3.85391000      1.48395000      0.97470700
 Ni      0.95684100      0.90006100     -1.31852000
 Ni     -1.81770000      0.39628000     -3.60306000
 Ni     -3.82519000     -1.46119000     -1.07247000
 Ni      2.17672000      2.27123000      2.86150000
 Ni     -0.31083000      0.98972200      2.95273000
 Ni      2.94304000     -3.10507000      0.14010700
 Ni     -1.28402000     -3.56843000      1.97660000
 Ni     -2.98493000      3.17862000      0.03278160
 Ni      1.60390000      2.75021000      0.36790000
 Ni     -2.51383000      2.61880000      2.41511000
 Ni     -2.72137000     -0.17260400      3.08790000
 Ni      0.50055600      1.72078000     -3.83138000
 Ni     -0.77782500      1.65734000      0.51277200
 Ni     -3.56630000     -2.15154000      1.42467000
 Ni     -0.47351800     -1.63023000      3.74035000
 Ni     -3.63708000      1.15024000     -1.64819000
 Ni      1.17573000     -2.36365000      1.98435000
  C      1.25258000     -3.74889000      4.02833000
  O      1.28951000     -4.17974000      5.23795000
  C      2.34595000      4.54247000      3.83386000
  O      3.14310000      5.54719000      3.96528000
  C     -2.91981000      5.37713000      1.06257000
  O     -3.16323000      6.62334000      0.90484600
  C     -0.72606000      3.61818000     -4.40336000
  O     -0.93789200      4.05727000     -5.58748000
  C      5.38015000     -2.68175000      0.61599400
  O      6.61832000     -3.00993000      0.94963100
  C     -3.14484000      4.74796000      2.34239000
  O     -3.66068000      5.53890000      3.22493000
  C      3.68220000      3.05548000     -3.85128000
  O      4.38925000      4.02869000     -4.28110000
  C      3.22204000      2.09417000     -4.81296000
  O      3.55750000      2.29681000     -6.03407000
  C     -2.39141000     -4.59580000     -2.75440000
  O     -3.08731000     -5.61985000     -3.05442000
  C      2.23993000     -4.41676000      3.14323000
  O      3.07864000     -5.11949000      3.84022000
  C     -5.64008000      0.87021700     -0.15279600
  O     -6.88965000      0.60842900     -0.27260400
  C      5.22863000     -2.91978000     -1.21986000
  O      6.43447000     -3.38725000     -1.32116000
  C      5.42726000      0.45381200     -1.89547000
  O      6.37800000     -0.06683450     -2.57961000
  C     -2.36167000     -5.38080000      1.02727000
  O     -2.86734000     -6.40778000      1.61814000
  C      5.79726000      1.29276000     -0.75121900
  O      7.04868000      1.48246000     -0.55017300
  C      4.74885000     -2.56307000     -2.57470000
  O      5.64870000     -2.63748000     -3.49403000
  C     -0.61070500      4.95928000     -3.38485000
  O     -0.35644800      6.09306000     -3.95226000
  C     -5.40103000      1.51463000      1.27784000
  O     -6.18582000      1.59341000      2.27651000
  C     -5.31255000     -0.80892400      2.30095000
  O     -6.56163000     -0.80910900      2.50614000
  C      4.19291000      3.61627000      2.11081000
  O      4.90843000      4.64952000      2.26052000
  C      0.78537100     -6.33136000      1.47677000
  O      1.27030000     -7.01505000      2.44316000
  C     -2.13390000      4.11940000     -3.43441000
  O     -3.12040000      4.40752000     -4.21638000
  C     -4.38817000     -3.49622000     -2.02458000
  O     -5.28646000     -4.39602000     -2.18658000
  C      2.75184000     -5.13819000      1.53240000
  O      3.49880000     -6.22716000      1.76610000
  C     -2.46014000      2.89041000      4.79157000
  O     -2.79221000      3.49211000      5.88131000
  C      1.52689000      5.77212000     -0.12153800
  O      2.31110000      6.69276000     -0.54216700
  C     -1.37729000     -2.73195000     -5.17706000
  O     -1.56901000     -3.17688000     -6.37124000
  C      1.11424000     -5.80735000     -2.33026000
  O      2.00157000     -6.67089000     -2.66869000
  C     -0.25969800     -6.67911000      0.53748700
  O     -0.74958400     -7.87325000      0.32021000
  C     -0.24664900     -6.13344000     -2.18961000
  O     -0.81541100     -7.25244000     -2.44369000
  C     -1.77529000      5.14044000     -2.16608000
  O     -2.43701000      6.23454000     -2.26921000
  C     -4.48461000     -3.90658000      0.99972600
  O     -5.44219000     -4.71749000      1.27005000
  C      1.20883000      5.69289000      1.27910000
  O      1.68510000      6.63218000      2.01289000
  C     -3.50285000     -4.66384000      0.14038000
  O     -4.04541000     -5.58755000     -0.61433400
  C     -5.28192000      2.60478000      0.13772600
  O     -6.35099000      3.31266000      0.15350000
  C     -1.45652000     -5.81487000     -0.21134100
  O     -2.20866000     -6.59586000     -0.90143400

