#B3LYP/6-31+G(d) OPT FREQ

110, Energy = -11979.54110519 au

0 1
 Ni      0.26378900     -3.55517000     -2.23451000
 Ni     -1.43052000     -0.17765500     -1.18638000
 Ni      0.72676300     -4.37919000      0.30338000
 Ni     -0.70415900      4.29906000     -0.34418000
 Ni     -1.23416000      2.43624000     -2.02873000
 Ni     -3.35024000      0.58133500      0.70825100
 Ni     -0.96400800     -0.81418200      1.32455000
 Ni     -0.03640450      3.54916000      2.26470000
 Ni      0.32538300     -0.91987000     -3.10110000
 Ni      3.26443000     -0.56347000     -0.72893700
 Ni      0.78833100     -1.63732000     -0.55010100
 Ni      2.67142000     -2.50005000     -2.44189000
 Ni      3.43187000      1.90669000     -1.52233000
 Ni      1.74671000     -0.24450700      3.82191000
 Ni      1.40935000      0.22905500      1.20927000
 Ni      2.86723000      0.10517500     -3.36656000
 Ni      1.00975000      3.43167000     -2.18377000
 Ni     -2.18010000     -2.00019000     -2.96237000
 Ni      3.84610000     -1.11608000      1.87805000
 Ni     -1.56718000     -2.67696000     -0.43492000
 Ni      3.76573000      1.30543000      0.98237200
 Ni      0.98157700      0.87825800     -1.33837000
 Ni     -1.97660000      0.36208300     -3.84244000
 Ni     -3.92074000     -1.19091000     -1.02340000
 Ni      2.04472000      2.27356000      3.01356000
 Ni     -0.28975300      1.07980000      3.26115000
 Ni      2.95224000     -3.27366000      0.23687800
 Ni     -1.15906000     -3.32630000      2.04919000
 Ni     -3.09523000      3.23542000     -0.22741900
 Ni      1.58535000      2.70487000      0.39356700
 Ni     -2.64847000      2.38411000      2.45751000
 Ni     -2.73315000     -0.08752230      3.21665000
 Ni      0.51304200      1.56335000     -4.08991000
 Ni     -0.79577900      1.66204000      0.55360500
 Ni     -3.33272000     -1.91089000      1.40715000
 Ni     -0.55205100     -1.32720000      3.94576000
 Ni     -3.81769000      1.19359000     -1.83690000
 Ni      1.22795000     -2.32863000      1.93188000
  C      0.56961700      0.39563700      5.93251000
  O      1.08641000      0.05296350      7.05903000
  C      2.42454000     -5.12482000     -2.50499000
  O      2.16828000     -6.24602000     -3.12438000
  C     -5.59186000      1.76534000      0.82690000
  O     -6.81663000      1.93040000      0.49409600
  C      2.09277000      4.96385000      2.56311000
  O      2.08370000      6.24812000      2.49289000
  C     -5.57427000      0.15252000      0.60913500
  O     -6.38343000     -0.28931200      1.50458000
  C      2.21065000     -0.38256600     -5.51915000
  O      2.61751000     -0.80055700     -6.64217000
  C      3.23783000      4.24008000      2.86445000
  O      4.37455000      4.80099000      3.09695000
  C     -6.03020000      1.76298000     -1.77686000
  O     -7.17399000      1.79304000     -2.39896000
  C      3.62307000     -4.34993000     -3.08498000
  O      4.62101000     -5.00065000     -3.55143000
  C     -5.95837000      0.14458700     -1.00088000
  O     -7.20149000     -0.19657500     -1.05652000
  C     -4.86504000      2.90743000      1.51941000
  O     -5.84501000      3.53559000      2.07034000
  C     -1.71291000      2.95356000      4.69469000
  O     -2.06796000      3.33290000      5.86597000
  C      0.45672700      3.71023000     -5.28429000
  O      0.56116800      4.95399000     -5.60548000
  C     -0.18512100      2.76624000     -6.03995000
  O     -0.74075100      2.98550000     -7.18133000
  C     -5.60057000      3.09254000     -1.40921000
  O     -6.47585000      3.90624000     -0.95781700
  C      5.27182000     -0.26560200      3.55600000
  O      5.64411000      0.30882800      4.65041000
  C      3.98608000     -4.73390000      1.35031000
  O      4.72919000     -5.54170000      2.02308000
  C     -4.18275000      0.58985400     -4.64951000
  O     -5.04748000      0.99094700     -5.50617000
  C     -2.18361000      5.63959000      1.02346000
  O     -2.57099000      6.84572000      1.24839000
  C      4.76680000     -1.39975000     -2.86952000
  O      6.00066000     -1.65645000     -3.17834000
  C     -3.32967000      4.51266000     -1.72711000
  O     -4.26515000      5.12441000     -2.36223000
  C      5.51916000     -2.33097000      0.58087300
  O      6.63324000     -3.01029000      0.78221700
  C      1.00219000      1.77742000      5.26106000
  O      0.90998700      2.62476000      6.21954000
  C     -0.23111900     -0.11057000     -5.69157000
  O     -0.07084320     -0.37332800     -6.93844000
  C      5.67517000     -0.52869600     -0.27592300
  O      6.86840000     -1.02570000     -0.42446400
  C     -2.07926000      5.23441000     -2.22727000
  O     -2.10046000      6.53207000     -2.36851000
  C      2.50427000     -5.69833000     -0.89112900
  O      3.62124000     -6.34754000     -0.79924000
  C     -4.74675000      1.12875000      3.34612000
  O     -6.06402000      1.18013000      3.69051000
  C      1.22673000     -6.44304000     -0.45020500
  O      1.11867000     -7.68310000     -0.74884100
  C      6.08121000     -0.82671200      2.62349000
  O      7.32258000     -1.10286000      2.43285000
  C     -0.94389500      0.03652290      5.66422000
  O     -1.61380000      0.39004000      6.70049000
  C      5.54766000      0.75058800     -1.09880000
  O      6.64351000      1.09515000     -1.67890000
  C      2.42847000     -4.82214000      1.99096000
  O      2.45504000     -5.77674000      2.85989000
  C      3.71198000      2.22289000     -4.23773000
  O      4.40483000      2.66560000     -5.22076000
  C     -4.01820000     -0.81722100     -4.46680000
  O     -4.84800000     -1.51021000     -5.17429000
  C     -1.01684000      4.49987000     -3.13140000
  O     -1.29849000      5.12985000     -4.21947000

