110
Energy = -12046.43008383 au
 Ni     -0.02874810     -3.54954000     -2.21127000
 Ni     -1.40290000     -0.26503100     -1.21435000
 Ni      0.67376300     -4.28850000      0.49885600
 Ni     -0.53141200      4.17349000     -0.09554920
 Ni     -1.26341000      2.36943000     -2.04977000
 Ni     -3.36342000      0.52895700      0.71595500
 Ni     -1.00657000     -0.98481300      1.36392000
 Ni     -0.04468180      3.62281000      2.31031000
 Ni      0.19358000     -1.15376000     -3.35155000
 Ni      3.05315000     -0.48300900     -0.62564200
 Ni      0.72606500     -1.65950000     -0.52052300
 Ni      2.61320000     -2.59530000     -2.45046000
 Ni      3.43046000      2.37974000     -1.47154000
 Ni      1.77643000     -0.73041300      4.10044000
 Ni      1.39034000      0.19861000      1.24490000
 Ni      2.58385000      0.20412800     -3.11675000
 Ni      1.29618000      3.61465000     -2.11422000
 Ni     -2.33716000     -2.26332000     -3.53082000
 Ni      3.40926000     -1.26777000      2.03139000
 Ni     -1.65957000     -2.91883000     -0.48921900
 Ni      3.81915000      1.51974000      1.20951000
 Ni      0.92510900      0.92794800     -1.32345000
 Ni     -2.01284000      0.25704700     -3.74927000
 Ni     -3.69885000     -1.36199000     -1.07410000
 Ni      2.20241000      1.96074000      3.05414000
 Ni     -0.24543200      0.88628800      3.11509000
 Ni      2.84567000     -3.12318000     -0.00072200
 Ni     -1.26646000     -3.80680000      2.15146000
 Ni     -2.85062000      3.00907000      0.08404000
 Ni      1.82540000      2.94950000      0.44206600
 Ni     -2.40044000      2.54126000      2.76973000
 Ni     -2.61156000     -0.07325030      3.36892000
 Ni      0.34137700      1.83124000     -3.94911000
 Ni     -0.75903000      1.61113000      0.58692100
 Ni     -3.40855000     -2.33705000      1.42397000
 Ni     -0.86103100     -1.70551000      4.21187000
 Ni     -3.50511000      1.32001000     -1.97051000
 Ni      1.27899000     -2.55145000      2.27357000
  C      4.31169000      0.93909600      3.87111000
  O      5.60790000      0.98821500      4.15960000
  C     -5.44571000     -3.27763000      0.68327800
  O     -5.93451000     -4.47037000      0.67007900
  C     -1.66989000      5.64565000      1.64107000
  O     -1.62265000      6.99217000      1.92063000
  C     -2.45024000      2.88272000      4.68070000
  O     -2.43504000      3.93286000      5.42491000
  C      3.91083000      3.06302000     -3.56509000
  O      4.90269000      3.69110000     -4.07230000
  C     -5.51444000      0.41615600      1.05247000
  O     -6.50904000     -0.15472900      1.63358000
  C      4.84206000     -2.70586000     -2.09355000
  O      5.85733000     -2.96030000     -2.81798000
  C     -2.08528000     -2.76523000      5.11621000
  O     -1.97222000     -3.63224000      6.07480000
  C      3.61591000     -0.67507900      5.66206000
  O      4.53959000     -1.11012000      6.42633000
  C     -3.93052000     -1.82960000     -4.36434000
  O     -4.59789000     -2.69124000     -5.07244000
  C      0.16742600     -1.91036000     -5.16585000
  O      0.90833600     -2.45782000     -6.05528000
  C     -2.83555000     -4.64727000     -3.23248000
  O     -3.92745000     -5.30293000     -3.49757000
  C     -0.29347700     -0.27629000      5.72536000
  O     -0.63329300     -0.25133400      6.98199000
  C     -2.52728000      1.46340000      5.02732000
  O     -2.60366000      1.22299000      6.29461000
  C     -3.06603000      2.88658000     -3.45122000
  O     -3.63925000      3.82891000     -4.16252000
  C     -1.31030000     -1.59772000     -5.35920000
  O     -1.80630000     -1.73651000     -6.54837000
  C      3.11006000      4.36990000     -0.95792400
  O      3.90141000      5.49980000     -0.87620100
  C     -3.01562000      4.83891000      2.02186000
  O     -4.05158000      5.62585000      2.48666000
  C      2.55422000     -2.49894000      4.51869000
  O      2.60548000     -2.95990000      5.71835000
  C      3.79112000      3.69506000      1.57786000
  O      4.63803000      4.68571000      1.67753000
  C      1.96788000      0.89382700      5.44328000
  O      1.67552000      1.03684000      6.68115000
  C      2.71045000     -4.85059000     -1.98995000
  O      3.35497000     -5.81803000     -2.48853000
  C     -4.28464000     -0.41758600     -4.32162000
  O     -5.37938000      0.04620510     -4.80242000
  C     -2.12951000     -4.77373000     -1.70665000
  O     -2.59087000     -5.91055000     -1.29506000
  C     -0.45419400     -5.18836000      3.22215000
  O     -0.49810000     -6.40891000      3.62198000
  C      1.39062000      5.44708000      2.03489000
  O      1.75524000      6.48524000      2.69040000
  C      3.61527000      0.86655700      5.46786000
  O      4.19131000      1.78597000      6.24569000
  C      1.72951000     -5.20977000      1.96365000
  O      2.19089000     -6.35361000      2.26239000
  C     -2.16779000     -3.93662000     -4.42440000
  O     -2.22305000     -4.27052000     -5.67304000
  C     -5.50733000      1.58595000      0.25754200
  O     -6.46685000      2.38981000     -0.01550340
  C      0.17500000      4.16445000     -4.04904000
  O     -0.21922500      5.18583000     -4.77587000
  C      3.21944000     -3.14566000      3.28456000
  O      3.85214000     -4.26388000      3.41599000
  C     -3.36125000     -2.39833000      4.54889000
  O     -4.51441000     -2.84819000      4.86064000
  C     -3.15822000     -4.59443000      1.59125000
  O     -3.79999000     -5.76858000      1.51219000
  C     -0.77969900      2.30342000     -5.86798000
  O     -1.05217000      3.41318000     -6.45475000
  C      1.02834000     -4.85041000      3.34819000
  O      1.54902000     -4.79556000      4.50384000
