#B3LYP/6-31+G(d) OPT FREQ

110, Energy = -11918.80612939 au

0 1
 Ni     -0.04905570     -3.48651000     -2.41576000
 Ni     -1.41570000     -0.25987500     -1.25567000
 Ni      0.57467500     -4.66470000      0.45534800
 Ni     -0.18643500      4.31136000     -0.24369600
 Ni     -1.23143000      2.43430000     -2.16457000
 Ni     -3.31759000      0.49561800      0.70693500
 Ni     -1.00253000     -0.95675800      1.33430000
 Ni     -0.07486180      3.39106000      2.25809000
 Ni      0.32890100     -1.06586000     -3.29832000
 Ni      3.31530000     -0.61434500     -0.78382700
 Ni      0.76834600     -1.72766000     -0.53573000
 Ni      2.60887000     -2.28914000     -2.42855000
 Ni      3.27234000      2.06552000     -1.56172000
 Ni      1.82966000     -0.29764300      3.86106000
 Ni      1.44101000      0.16029700      1.19140000
 Ni      2.68645000      0.07204940     -3.31437000
 Ni      1.41585000      3.80883000     -2.17611000
 Ni     -2.19459000     -2.38259000     -3.07008000
 Ni      3.87850000     -1.31938000      1.69693000
 Ni     -1.70548000     -3.04110000     -0.43325900
 Ni      3.93673000      1.12505000      1.05418000
 Ni      0.94919300      0.87375200     -1.38596000
 Ni     -1.70686000      0.27606100     -3.99792000
 Ni     -3.84388000     -1.20698000     -1.04333000
 Ni      2.20970000      2.01064000      3.16156000
 Ni     -0.30415900      0.89877200      3.19829000
 Ni      3.17148000     -3.26674000      0.43828100
 Ni     -1.21559000     -3.65296000      2.14145000
 Ni     -3.23839000      3.04486000     -0.19309700
 Ni      1.64140000      2.64541000      0.41436200
 Ni     -2.57719000      2.21627000      2.42226000
 Ni     -2.88450000     -0.42813300      3.33684000
 Ni      0.26958500      1.59892000     -3.96959000
 Ni     -0.80471000      1.62269000      0.48956100
 Ni     -3.37105000     -2.26856000      1.66569000
 Ni     -0.67978800     -1.56932000      3.96622000
 Ni     -3.72888000      1.25338000     -1.84188000
 Ni      1.29210000     -2.56198000      2.04981000
  C     -0.00667466     -0.10645500     -5.67216000
  O      0.65931200     -0.13231200     -6.84963000
  C     -4.03856000     -1.60292000     -4.26528000
  O     -4.82574000     -2.17964000     -5.11578000
  C      4.27583000      1.18284000      3.87653000
  O      5.12821000      1.49837000      4.75898000
  C      2.07032000      5.45652000     -1.41755000
  O      3.02612000      6.21950000     -1.82658000
  C      5.38574000     -2.94583000     -1.48121000
  O      6.09278000     -3.70968000     -2.21733000
  C      1.52281000      1.42494000      5.30492000
  O      1.54959000      1.72826000      6.57009000
  C      3.50393000     -3.87504000      2.11376000
  O      4.47648000     -4.56778000      2.60699000
  C      4.81447000     -1.53472000     -1.90836000
  O      5.84548000     -1.14878000     -2.60093000
  C     -5.04373000      2.98210000      0.07848850
  O     -5.90984000      3.88602000      0.36850100
  C     -2.96183000     -4.57546000      0.90132500
  O     -4.08373000     -5.29557000      0.88653200
  C      5.78207000     -1.17738000      1.19937000
  O      6.77055000     -1.96308000      1.23996000
  C      3.20975000      3.75903000     -3.46213000
  O      3.71012000      4.52472000     -4.34343000
  C     -3.08248000     -2.05299000      4.74051000
  O     -3.40089000     -2.19309000      6.01474000
  C     -0.05576160     -4.99294000      3.50043000
  O     -0.01234240     -6.36468000      3.62533000
  C     -0.89082000      3.78919000     -4.08309000
  O     -1.00813000      5.09228000     -4.38339000
  C     -3.42266000      3.44199000     -2.73060000
  O     -3.94667000      4.23014000     -3.59564000
  C      0.10441400     -4.05562000      4.32195000
  O      0.83041800     -4.25975000      5.37874000
  C     -0.38221700      0.04285570      5.49500000
  O     -0.66796500      0.23053900      6.89787000
  C     -1.70918000     -5.99650000      0.65508000
  O     -2.53512000     -6.98666000      0.58919400
  C     -1.48946000      2.72372000     -4.91507000
  O     -2.17029000      3.01553000     -5.97057000
  C     -4.59156000      1.21711000      3.14390000
  O     -5.96517000      1.33821000      3.56510000
  C     -0.33096400     -6.33519000      0.10664300
  O     -0.13908500     -7.58772000     -0.12874400
  C     -1.25667000     -0.90068200     -5.66050000
  O     -1.69360000     -1.70501000     -6.56234000
  C      2.42534000     -1.25725000     -5.10655000
  O      2.79827000     -1.32399000     -6.37024000
  C     -2.26295000     -4.84020000     -1.87428000
  O     -2.90916000     -6.22888000     -1.56940000
  C      2.36774000     -4.80253000      2.69468000
  O      2.51151000     -5.12200000      3.92599000
  C      1.28400000      5.77965000     -0.23777100
  O      1.62404000      6.78615000      0.50248100
  C      5.72558000      0.14101800      0.42309200
  O      6.86341000      0.42752200     -0.17798100
  C     -2.48384000     -4.40608000     -3.28119000
  O     -3.02575000     -5.27296000     -4.04909000
  C      5.05616000     -3.48486000     -0.10877300
  O      6.10188000     -4.05541000      0.38097300
  C      1.62482000     -5.51573000      1.59512000
  O      1.94948000     -6.70627000      1.91336000
  C     -5.48641000     -1.04054000      1.74928000
  O     -6.70165000     -1.27686000      2.12780000
  C     -5.78518000      1.65994000      0.15998300
  O     -6.69448000      1.49781000      1.06765000
  C     -5.60030000      0.59906300     -0.92807400
  O     -6.80354000      0.25143000     -1.09070000
  C     -3.51904000     -3.12176000      3.82034000
  O     -4.13544000     -4.16375000      4.20710000
  C      0.70642800     -3.02709000     -4.56401000
  O      0.71728800     -3.46215000     -5.81297000

