#B3LYP/6-31+G(d) OPT FREQ

110, Energy = -12468.19680012 au

0 1
 Ni     -0.04251680     -3.98249000     -2.50434000
 Ni     -1.31785000     -0.27276000     -1.33905000
 Ni      0.82190900     -4.50441000      0.20100900
 Ni     -0.48358100      4.49040000     -0.16935600
 Ni     -1.24299000      2.38396000     -2.12179000
 Ni     -3.00146000      0.53610200      0.62999300
 Ni     -1.01518000     -0.96525400      1.32951000
 Ni     -0.18704400      3.49131000      2.30465000
 Ni      0.36066800     -1.23182000     -3.50527000
 Ni      3.01638000     -0.60830300     -0.64378400
 Ni      0.68446700     -1.75969000     -0.62575200
 Ni      2.22897000     -2.78587000     -2.54296000
 Ni      3.55386000      1.82364000     -1.41450000
 Ni      1.98123000     -0.30965700      3.96422000
 Ni      1.44877000      0.26510200      1.24875000
 Ni      2.57228000      0.01947230     -3.34308000
 Ni      0.97290100      3.64122000     -2.10325000
 Ni     -2.02227000     -2.46741000     -3.13162000
 Ni      3.77250000     -1.26658000      2.05315000
 Ni     -1.65509000     -2.99613000     -0.46035600
 Ni      4.12903000      1.19273000      1.07377000
 Ni      0.96730800      0.91755600     -1.39570000
 Ni     -1.86375000      0.12735400     -4.13892000
 Ni     -3.62573000     -1.36402000     -1.07705000
 Ni      2.25675000      2.39442000      2.77864000
 Ni     -0.33206700      0.99489700      3.23789000
 Ni      2.84444000     -3.09448000      0.33760100
 Ni     -1.47966000     -3.63919000      2.20256000
 Ni     -2.73708000      3.42132000     -0.20458000
 Ni      1.66367000      2.87132000      0.32154200
 Ni     -2.39736000      2.39534000      2.56647000
 Ni     -3.03392000     -0.11723200      3.11788000
 Ni      0.47495600      1.39947000     -3.94903000
 Ni     -0.71993700      1.68157000      0.48950500
 Ni     -3.52452000     -2.22579000      1.55384000
 Ni     -0.73745000     -1.54637000      3.96718000
 Ni     -3.42499000      1.19663000     -1.90812000
 Ni      1.22543000     -2.31964000      2.09641000
  C      2.99812000     -3.30593000      3.10851000
  O      3.40887000     -3.55496000      4.30155000
  C      2.27004000     -0.19476800     -5.32557000
  O      3.07620000     -0.38379500     -6.30315000
  C      5.58934000      1.41548000     -1.22215000
  O      6.51728000      1.34274000     -2.11327000
  C      5.08097000      0.09713430      3.18766000
  O      6.42997000     -0.01555380      3.45411000
  C     -0.11979100      4.94441000     -3.05938000
  O      0.08203680      6.15659000     -3.43988000
  C      0.90391600     -0.69684300     -5.85358000
  O      0.91545500     -1.67184000     -6.74380000
  C     -1.96268000     -5.23090000     -1.69653000
  O     -1.59812000     -6.46372000     -1.63089000
  C      2.60063000     -4.92904000     -2.84281000
  O      3.53269000     -5.18979000     -3.69486000
  C     -2.89105000      4.55860000     -1.82294000
  O     -3.23319000      5.76835000     -2.08158000
  C     -3.83812000      0.12910400     -4.89993000
  O     -4.33755000     -0.05452650     -6.05341000
  C     -5.24421000     -0.90875600      2.43721000
  O     -6.50443000     -1.16915000      2.19465000
  C     -2.53701000     -4.35298000     -2.89567000
  O     -3.46439000     -5.03833000     -3.46023000
  C     -2.11329000     -3.32624000      4.29280000
  O     -2.77125000     -3.96213000      5.23074000
  C      2.93622000     -4.60493000      2.35753000
  O      3.91309000     -5.41405000      2.57649000
  C     -2.68005000      3.89667000     -3.21821000
  O     -3.59224000      3.60006000     -4.07238000
  C      2.87398000      4.38267000      3.32098000
  O      2.81847000      5.40095000      4.10836000
  C      5.69410000     -1.55083000      0.86264300
  O      6.90406000     -1.78447000      1.21742000
  C      3.45280000     -0.16802600      5.31025000
  O      3.70399000     -0.46345700      6.53241000
  C      0.54320600     -3.18564000     -4.42438000
  O      1.14291000     -3.81299000     -5.38696000
  C     -4.98399000      0.19443600      3.34388000
  O     -5.72035000      1.02355000      3.98887000
  C     -3.62460000     -4.42197000      1.70711000
  O     -4.68301000     -5.07881000      2.00410000
  C      4.41692000      0.70557500      4.54204000
  O      4.98792000      1.75892000      5.04520000
  C     -0.21315000      0.18280500      5.39161000
  O     -0.48860700      0.55176500      6.63258000
  C      3.66389000      4.11739000      2.18462000
  O      4.56092000      4.75787000      1.52853000
  C     -2.89191000     -4.96791000     -0.35787100
  O     -4.09410000     -5.24066000     -0.74034500
  C      1.68130000     -5.31260000      1.75615000
  O      1.46910000     -6.55510000      2.10691000
  C     -0.93917500     -2.52801000     -4.78905000
  O     -1.33195000     -2.57103000     -6.02893000
  C     -0.42847600      0.18836700     -5.67579000
  O     -0.93050800      0.22670500     -6.86114000
  C      1.07675000     -5.66820000     -2.85154000
  O      0.55987300     -6.61067000     -3.57250000
  C      5.87277000      1.14230000      0.17909600
  O      7.03342000      0.85943300      0.68774900
  C     -1.59053000      3.04482000      4.41150000
  O     -2.02359000      3.46225000      5.60811000
  C     -1.26408000      4.35501000     -3.86553000
  O     -1.59497000      4.42624000     -5.14350000
  C     -2.10708000      5.32659000      1.06367000
  O     -2.56411000      6.53410000      1.31058000
  C     -2.49370000     -5.37141000      1.16077000
  O     -2.08371000     -6.56481000      1.43478000
  C      1.99471000     -5.64342000     -1.48580000
  O      2.54300000     -6.68993000     -0.90867200
  C      1.63195000      5.18495000      0.09587370
  O      2.32833000      6.26915000      0.37147000

