110
Energy = -11896.51902440 au
 Ni      0.23646400     -3.71526000     -2.21163000
 Ni     -1.39777000     -0.19228900     -1.21351000
 Ni      0.67463500     -4.50429000      0.30382600
 Ni     -0.66639100      4.29566000     -0.46640500
 Ni     -1.22611000      2.38869000     -2.07571000
 Ni     -3.24948000      0.55793100      0.62504000
 Ni     -0.96168900     -0.90939300      1.31921000
 Ni     -0.17268900      3.72158000      2.24851000
 Ni      0.28106100     -1.03628000     -3.15308000
 Ni      3.25142000     -0.54444500     -0.60543800
 Ni      0.77827900     -1.66913000     -0.51816800
 Ni      2.48331000     -2.37535000     -2.46408000
 Ni      3.36966000      2.03724000     -1.45697000
 Ni      1.83484000     -0.32561600      3.70925000
 Ni      1.43999000      0.20572900      1.18220000
 Ni      2.69768000      0.14635300     -3.18688000
 Ni      1.17691000      3.66882000     -2.36876000
 Ni     -2.25479000     -2.09922000     -3.02132000
 Ni      3.75932000     -1.20543000      1.89123000
 Ni     -1.57715000     -2.76067000     -0.37228700
 Ni      4.01093000      1.27270000      1.12838000
 Ni      0.95719600      0.90648000     -1.33659000
 Ni     -2.08514000      0.34997200     -3.76743000
 Ni     -3.77921000     -1.30178000     -1.18031000
 Ni      2.16977000      2.36347000      2.94842000
 Ni     -0.30238200      0.99305200      2.97510000
 Ni      2.88141000     -3.27905000      0.28586400
 Ni     -1.13053000     -3.48808000      2.33838000
 Ni     -3.08246000      3.14028000     -0.20925600
 Ni      1.64372000      2.76481000      0.45500500
 Ni     -2.55155000      2.55294000      2.34160000
 Ni     -2.69481000     -0.35710400      3.22100000
 Ni      0.52578100      1.71958000     -3.90060000
 Ni     -0.77101400      1.67586000      0.51364600
 Ni     -3.48352000     -2.22097000      1.68159000
 Ni     -0.64368500     -1.74480000      3.87422000
 Ni     -3.62486000      1.28775000     -1.82135000
 Ni      1.29388000     -2.54886000      2.13525000
  C     -4.05533000     -4.31482000      0.99224100
  O     -5.04557000     -5.12900000      1.03241000
  C      3.42122000      3.95002000      2.18835000
  O      4.00272000      5.01836000      2.60078000
  C     -0.91318600      5.65191000      2.84393000
  O     -0.42889900      6.76266000      3.23105000
  C     -3.56424000      4.44566000      2.47432000
  O     -4.72559000      4.94308000      2.65373000
  C      5.60206000     -0.65416400      0.25046200
  O      6.67855000     -1.35862000      0.26791400
  C     -3.47735000     -0.37361400     -5.41944000
  O     -3.71890000     -1.00680000     -6.50956000
  C     -5.30460000      2.67877000     -0.03538560
  O     -6.29602000      3.44948000      0.25375700
  C     -2.34599000      5.27631000      2.74296000
  O     -2.84029000      6.44365000      3.13875000
  C     -4.32223000     -2.11056000     -3.63273000
  O     -5.14707000     -2.32866000     -4.57802000
  C      0.79462000     -4.29034000      3.61099000
  O      1.02624000     -4.59865000      4.83498000
  C     -4.24332000      4.95738000     -0.96416400
  O     -4.60311000      5.59258000     -2.01832000
  C      5.18741000      0.23573200      3.01057000
  O      6.18663000      0.28959000      3.83127000
  C      0.79307400     -2.56002000     -4.83505000
  O      0.80959400     -2.66954000     -6.09708000
  C      3.76878000      1.56397000     -4.81807000
  O      4.60144000      1.79198000     -5.77233000
  C      1.31229000     -5.67603000     -2.05588000
  O      1.28925000     -6.66623000     -2.87357000
  C     -0.03553300      3.37364000     -5.20275000
  O     -0.85099400      3.87929000     -6.04533000
  C     -5.44456000      1.20993000      0.05812700
  O     -6.63304000      0.84820600      0.40846600
  C     -1.66818000      4.87921000     -3.08086000
  O     -2.11303000      5.20665000     -4.24850000
  C      1.19466000      0.02068680      6.00322000
  O      1.44915000      0.60260400      7.12186000
  C     -2.09437000     -3.53783000      4.43395000
  O     -2.35604000     -4.55012000      5.15634000
  C      2.29355000     -5.68304000     -0.97188100
  O      3.27114000     -6.49976000     -0.86902800
  C     -1.23969000     -5.77936000     -0.41888100
  O     -1.61794000     -7.00952000     -0.45895100
  C      4.86600000     -2.31491000     -2.45229000
  O      5.94173000     -2.75811000     -3.00098000
  C     -3.16827000      3.39580000     -3.11343000
  O     -4.03791000      3.87231000     -3.96761000
  C      3.57771000     -4.52539000      1.74090000
  O      4.11320000     -5.68826000      1.86011000
  C      1.54855000      2.50862000      5.23293000
  O      1.68916000      3.17509000      6.32463000
  C     -1.90102000      5.42400000     -1.65627000
  O     -2.29015000      6.63185000     -1.86544000
  C     -4.29735000      0.36150100     -4.55863000
  O     -5.54845000      0.62608000     -4.68954000
  C      3.40348000      4.32069000     -2.99064000
  O      3.94777000      4.95898000     -3.95732000
  C     -0.07391700      4.96215000     -3.10606000
  O      0.14064400      6.01374000     -3.81745000
  C     -3.27223000     -2.55390000      4.62859000
  O     -3.71959000     -2.24102000      5.84646000
  C      5.71778000      0.74536600     -0.29862500
  O      6.89425000      1.11708000     -0.66174100
  C      1.17341000     -5.17801000      2.44579000
  O      1.76879000     -6.29048000      2.70492000
  C      1.38799000      3.57358000     -5.10910000
  O      2.38739000      4.15954000     -5.62252000
  C      3.33049000     -3.59771000      2.88024000
  O      3.53234000     -4.09243000      4.04621000
  C     -4.29473000     -2.65510000      3.48523000
  O     -5.22044000     -3.41224000      3.90964000
