110
Energy = -12248.84588252 au
 Ni      0.27392900     -3.68525000     -2.19553000
 Ni     -1.46334000     -0.27108400     -1.17028000
 Ni      0.48996900     -4.72521000      0.38629000
 Ni     -0.48237200      4.52799000      0.04706620
 Ni     -1.16800000      2.24842000     -1.97462000
 Ni     -3.12217000      0.45554100      0.67345600
 Ni     -0.96436700     -0.92729900      1.45828000
 Ni     -0.19671100      3.83024000      2.35817000
 Ni      0.29469300     -0.92420400     -2.99562000
 Ni      3.23641000     -0.51017800     -0.73053200
 Ni      0.68011700     -1.68329000     -0.47888300
 Ni      2.48425000     -2.35798000     -2.55824000
 Ni      3.35884000      1.90599000     -1.43118000
 Ni      1.63047000     -0.34105200      3.89554000
 Ni      1.44737000      0.19782500      1.28793000
 Ni      3.01507000      0.27918400     -3.24466000
 Ni      1.02160000      3.53695000     -2.27388000
 Ni     -2.13064000     -2.31027000     -2.87840000
 Ni      3.59911000     -1.48082000      2.31280000
 Ni     -1.71055000     -3.02079000     -0.34340700
 Ni      3.93023000      1.32139000      1.32379000
 Ni      0.97716800      0.87566200     -1.29579000
 Ni     -2.11254000      0.24871200     -3.78889000
 Ni     -3.89861000     -1.37572000     -1.33652000
 Ni      2.01090000      2.33060000      3.23675000
 Ni     -0.43208100      1.17124000      3.26214000
 Ni      2.74467000     -3.04741000      0.21259600
 Ni     -1.28522000     -3.50301000      2.28449000
 Ni     -2.97589000      2.91555000     -0.01937460
 Ni      1.61128000      2.82149000      0.52448500
 Ni     -2.61801000      2.33667000      2.48230000
 Ni     -2.99771000     -0.28962300      3.30554000
 Ni      0.65241300      1.83656000     -3.93606000
 Ni     -0.71596100      1.64730000      0.63358900
 Ni     -3.32258000     -2.11052000      1.48657000
 Ni     -0.71135400     -1.66271000      4.16200000
 Ni     -3.98860000      1.09407000     -2.01140000
 Ni      1.22372000     -2.47708000      2.16099000
  C      2.21807000     -4.44546000      3.01141000
  O      2.10621000     -4.89601000      4.21090000
  C      2.73668000      2.32250000     -4.53620000
  O      3.25924000      2.91138000     -5.57490000
  C     -1.76813000      0.92167400      5.70866000
  O     -2.57292000      1.38928000      6.61082000
  C     -1.00345000     -3.57826000      5.31875000
  O     -1.06559000     -4.22013000      6.42467000
  C     -2.31824000     -5.18943000      0.16561200
  O     -3.23293000     -5.86436000     -0.47088400
  C     -1.23284000      5.49713000      2.66943000
  O     -1.73540000      6.13445000      3.66803000
  C     -1.39865000      5.85321000      1.24893000
  O     -1.91721000      7.01146000      0.98979000
  C     -3.69450000      0.01689850     -4.75585000
  O     -4.18132000     -0.49418500     -5.82828000
  C      1.71184000     -5.30313000     -1.86036000
  O      2.03553000     -6.38183000     -2.48756000
  C      4.71124000     -0.06528820     -2.40613000
  O      5.97302000     -0.33175100     -2.82635000
  C     -1.88513000     -4.32906000      4.38497000
  O     -2.35823000     -5.54542000      4.44930000
  C      1.67768000      1.95222000      5.18743000
  O      1.79737000      2.81015000      6.14617000
  C     -3.34536000     -3.96218000     -2.33654000
  O     -3.87155000     -4.95660000     -2.97153000
  C     -1.00027000      2.01531000      5.00151000
  O     -0.75210700      3.12582000      5.59866000
  C     -2.42706000     -1.85567000      6.67194000
  O     -2.80056000     -2.54534000      7.75514000
  C      5.44999000      1.33091000      2.47612000
  O      6.35238000      2.20854000      2.73365000
  C      2.48887000      4.38603000      2.83862000
  O      3.38432000      5.20562000      3.25387000
  C     -0.04570850      3.94594000     -3.85902000
  O     -0.34879900      5.01390000     -4.62217000
  C     -0.94021200     -5.86548000      0.06435990
  O     -0.80468000     -7.09790000     -0.29028300
  C     -4.63821000      2.82766000      1.84308000
  O     -5.80108000      3.06529000      2.35204000
  C     -3.49841000     -4.70982000      1.57530000
  O     -4.29709000     -5.71423000      1.56778000
  C      1.31057000      5.52559000      0.61425100
  O      1.64494000      6.77238000      0.60161600
  C      1.99554000     -3.09036000     -4.66071000
  O      2.67562000     -3.39168000     -5.70173000
  C     -5.14708000     -0.19054400      3.19387000
  O     -6.26914000      0.29450900      2.79977000
  C      1.59752000     -5.20374000      1.82207000
  O      1.68031000     -6.45677000      2.13119000
  C      5.13642000     -1.19205000      3.42602000
  O      5.88346000     -1.89405000      4.19614000
  C      1.26944000      0.56926100      5.60765000
  O      1.15073000      0.31257600      6.86590000
  C     -1.44954000     -0.68317700      6.27519000
  O     -0.79916700     -0.43124300      7.37873000
  C      5.37372000      0.29857800      3.57048000
  O      5.71450000      0.56121600      4.80216000
  C     -5.59547000      1.75727000     -0.82214200
  O     -6.84402000      1.71715000     -1.09617000
  C     -5.16054000     -0.72555200     -2.86474000
  O     -6.25029000     -1.19744000     -3.35513000
  C      3.29595000     -3.26848000      2.88837000
  O      4.12097000     -3.72676000      3.78000000
  C     -4.92167000      0.46239400     -3.92965000
  O     -5.81821000      1.27247000     -4.40545000
  C     -3.24705000     -3.50747000      4.00318000
  O     -3.68711000     -3.22676000      5.16412000
  C     -4.13459000     -3.93665000      2.81090000
  O     -5.35291000     -4.08232000      3.20376000
  C     -4.77437000     -1.14790000      4.16907000
  O     -5.48104000     -1.86969000      4.96141000
