110
Energy = -12363.44195772 au
 Ni      0.40091100     -4.03641000     -2.20319000
 Ni     -1.37350000     -0.24975600     -1.19571000
 Ni      0.67160300     -4.55684000      0.46533400
 Ni     -0.55287600      4.50368000     -0.03391490
 Ni     -1.15208000      2.52735000     -2.09374000
 Ni     -3.12102000      0.43500400      0.69662600
 Ni     -0.97771900     -0.98411200      1.25965000
 Ni      0.01374910      3.89503000      2.40047000
 Ni      0.44405200     -1.13085000     -3.57967000
 Ni      3.49006000     -0.64956300     -0.60251200
 Ni      0.81137800     -1.76504000     -0.60944200
 Ni      2.79397000     -2.76812000     -2.59126000
 Ni      3.34906000      1.94102000     -1.34812000
 Ni      2.10145000     -0.50690500      3.84720000
 Ni      1.54255000      0.22897800      1.15566000
 Ni      2.83611000     -0.10774800     -3.09776000
 Ni      1.45222000      3.71692000     -2.26821000
 Ni     -1.96745000     -2.17511000     -2.82210000
 Ni      3.69829000     -1.06823000      2.03398000
 Ni     -1.78741000     -3.20556000     -0.39931100
 Ni      4.11358000      1.40324000      1.09589000
 Ni      0.97608300      0.88936700     -1.40753000
 Ni     -1.63196000      0.31676300     -3.72633000
 Ni     -3.81716000     -1.43571000     -0.96202700
 Ni      2.24616000      2.28247000      2.93658000
 Ni     -0.18026100      0.99408200      2.94716000
 Ni      2.95709000     -3.53431000     -0.08443970
 Ni     -1.08272000     -3.73002000      2.07605000
 Ni     -2.82484000      3.36678000     -0.24642000
 Ni      1.69579000      3.06819000      0.41484800
 Ni     -2.34343000      2.33032000      2.31708000
 Ni     -2.76363000     -0.38802300      3.32032000
 Ni      0.71814100      1.64620000     -4.06291000
 Ni     -0.67429600      1.73794000      0.46757500
 Ni     -3.39252000     -2.32392000      1.68825000
 Ni     -0.47003600     -1.56122000      3.70317000
 Ni     -3.58782000      1.17309000     -1.72037000
 Ni      1.38414000     -2.37836000      2.10880000
  C      2.73135000     -5.19563000     -1.04533000
  O      3.33735000     -6.29350000     -0.80212800
  C      2.42681000      4.67087000      1.50756000
  O      2.86900000      5.76635000      1.01657000
  C      0.45247100     -0.00861913     -5.55801000
  O      1.15240000      0.03209990     -6.63900000
  C      1.39585000      6.26141000     -1.13379000
  O      1.40786000      7.32067000     -1.88368000
  C      2.36922000     -5.00959000      1.50135000
  O      2.74955000     -6.24514000      1.57043000
  C      1.89829000     -2.30433000     -4.47133000
  O      1.98693000     -2.77951000     -5.74729000
  C     -5.36133000      0.35664600     -0.60505400
  O     -6.65393000      0.59980300     -0.45145900
  C      5.43195000      1.41396000      3.29436000
  O      6.32373000      1.87171000      4.12574000
  C      2.39979000      5.13845000     -1.43934000
  O      3.65215000      5.39866000     -1.57931000
  C     -2.23408000      5.36758000      0.76659900
  O     -2.68509000      6.57223000      1.06808000
  C      3.51839000      0.39754200      4.95335000
  O      4.36623000      0.04974960      5.84507000
  C      1.93898000     -4.69818000      3.09745000
  O      2.45274000     -5.41707000      4.07799000
  C      0.39365900      3.96151000      4.35155000
  O     -0.26606600      3.99213000      5.46853000
  C      2.72701000      4.64407000      3.03594000
  O      3.76704000      5.22974000      3.52368000
  C      5.28367000     -0.07851440      3.08389000
  O      6.05322000     -0.92926200      3.60626000
  C      1.56761000      4.90419000      4.18093000
  O      1.81136000      6.07346000      4.57256000
  C     -1.27545000     -5.22496000     -0.55496000
  O     -1.98972000     -6.36886000     -0.71670800
  C      2.38730000      3.13225000     -4.12695000
  O      2.98663000      3.79993000     -5.10469000
  C      4.57980000     -3.09932000     -1.74041000
  O      5.55382000     -3.78447000     -2.19607000
  C     -2.97816000      4.17954000     -1.95793000
  O     -3.59763000      5.15464000     -2.60195000
  C      0.38909400      6.06055000      1.60527000
  O      0.41237300      6.83926000      2.60504000
  C      4.83240000      2.89070000      2.70602000
  O      5.57404000      3.91067000      2.94904000
  C      2.38581000     -4.79626000     -2.55990000
  O      2.73144000     -5.56439000     -3.54903000
  C     -4.17728000     -2.45534000      3.73200000
  O     -5.09673000     -3.32584000      3.99526000
  C     -0.15726900     -5.92097000     -3.00667000
  O      0.58336300     -6.91965000     -3.30217000
  C      0.33170300     -5.00399000      2.66970000
  O      0.17085000     -6.16421000      3.20121000
  C      5.59720000      0.99034100     -0.05711160
  O      6.89881000      0.89004800      0.07664300
  C      0.54239100      6.67985000      0.22926200
  O      0.30068500      7.95109000      0.13173700
  C     -0.31433800      3.63497000     -4.05508000
  O     -0.75539100      4.47394000     -4.99440000
  C     -0.62825100     -1.13218000     -5.35531000
  O     -1.06465000     -2.04801000     -6.14741000
  C     -3.55477000     -3.75764000     -1.39487000
  O     -4.25092000     -4.89306000     -1.49036000
  C      2.39930000     -3.18234000      3.50783000
  O      2.85827000     -3.03276000      4.70107000
  C      4.83951000     -0.73152000     -2.56044000
  O      5.94408000     -0.53399000     -3.17906000
  C     -3.53206000     -4.25120000      1.31606000
  O     -4.44123000     -5.20922000      1.25317000
  C     -3.69488000     -1.54114000      4.73089000
  O     -3.87373000     -1.51794000      6.00086000
  C      5.23136000     -1.68481000     -1.32965000
  O      6.25887000     -1.64839000     -0.55563600
