110
Energy = -12330.12467187 au
 Ni      0.03825050     -3.82678000     -2.30091000
 Ni     -1.40246000     -0.24200500     -1.09413000
 Ni      0.72742100     -4.52858000      0.41580300
 Ni     -0.44379100      4.45061000      0.15786400
 Ni     -1.29593000      2.43148000     -1.94896000
 Ni     -3.39356000      0.70275200      0.78074900
 Ni     -0.98308500     -0.87154500      1.39131000
 Ni     -0.25606900      3.64423000      2.64057000
 Ni      0.25958400     -1.15598000     -2.93935000
 Ni      3.39827000     -0.51811900     -0.61519300
 Ni      0.82124300     -1.77480000     -0.49165400
 Ni      2.87100000     -2.51846000     -2.27554000
 Ni      3.26854000      1.99014000     -1.37086000
 Ni      1.83579000     -0.64112100      3.66284000
 Ni      1.42200000      0.23417100      1.22110000
 Ni      2.72533000     -0.01506720     -3.03550000
 Ni      1.13044000      3.39716000     -1.91575000
 Ni     -2.23184000     -2.49073000     -3.32054000
 Ni      3.44594000     -1.42327000      1.90301000
 Ni     -1.61125000     -2.95686000     -0.45041300
 Ni      3.69743000      1.67488000      1.10423000
 Ni      0.94924500      0.83420400     -1.21243000
 Ni     -1.99524000      0.21315300     -3.58997000
 Ni     -3.70258000     -1.28053000     -1.15640000
 Ni      1.98229000      2.07196000      3.08693000
 Ni     -0.36154500      1.07293000      3.28183000
 Ni      2.84742000     -3.42352000      0.33673000
 Ni     -1.12601000     -3.63467000      1.94555000
 Ni     -2.81365000      3.16882000     -0.05773370
 Ni      1.55130000      2.84743000      0.56089000
 Ni     -2.60324000      2.62593000      2.65917000
 Ni     -2.83527000      0.08124760      3.38396000
 Ni      0.51976500      1.44871000     -3.67925000
 Ni     -0.77560200      1.70680000      0.66796400
 Ni     -3.38425000     -1.82520000      1.56323000
 Ni     -0.78748000     -1.44276000      4.11739000
 Ni     -3.67830000      1.23171000     -2.00390000
 Ni      1.05930000     -2.43752000      2.03763000
  C     -2.06123000     -2.89619000      5.04503000
  O     -2.33268000     -3.12860000      6.27065000
  C      1.64841000      2.50732000      5.21325000
  O      2.49696000      2.56031000      6.17686000
  C     -3.12927000      4.46154000      2.50726000
  O     -4.14453000      5.23218000      2.66530000
  C     -1.24201000     -2.68832000     -5.01474000
  O     -1.63365000     -3.14773000     -6.15372000
  C     -1.95902000     -5.22893000      0.24193000
  O     -3.10322000     -5.56592000      0.74150100
  C      1.41949000      5.47486000      0.33892100
  O      1.47950000      6.79115000      0.56220300
  C     -1.36553000      5.73105000      1.36921000
  O     -1.79888000      6.93333000      1.25524000
  C      2.83162000     -2.64690000      3.89771000
  O      3.34738000     -2.94718000      5.03142000
  C     -3.84865000     -1.97212000     -4.39874000
  O     -4.67081000     -2.62313000     -5.13697000
  C      3.69524000     -3.97688000      1.98467000
  O      4.70672000     -4.76847000      2.06017000
  C     -4.73760000      0.16832500     -3.44366000
  O     -5.82318000      0.32724900     -4.12541000
  C     -5.52770000      0.71920000      0.75628300
  O     -6.62500000      0.07494380      0.57185400
  C      3.17750000      4.83311000      0.47823500
  O      3.70210000      5.98562000      0.22746600
  C     -2.77779000      3.84161000     -2.41585000
  O     -3.07358000      4.78611000     -3.28287000
  C     -4.82920000     -0.60383700      2.98335000
  O     -6.08225000     -0.36421300      3.28808000
  C      4.14100000      3.75250000      0.85447300
  O      5.35284000      4.03369000      1.19243000
  C      1.71153000     -6.08797000     -1.57615000
  O      2.01308000     -7.32490000     -1.80880000
  C     -1.08428000     -6.52565000      0.35001000
  O     -1.40560000     -7.79491000      0.11087300
  C      0.36656100      3.53827000      4.81971000
  O      0.12815600      4.62637000      5.45640000
  C      1.29221000     -4.69812000      2.50180000
  O      1.03606000     -5.76630000      3.17132000
  C      0.20867300     -7.08870000      0.23101400
  O      1.05930000     -8.05184000      0.18449300
  C     -1.21226000     -0.12822300      5.54899000
  O     -0.90736200     -0.37858300      6.77459000
  C     -2.13611000     -5.17438000     -1.60532000
  O     -2.28380000     -6.45971000     -1.65506000
  C     -2.72927000     -4.32084000     -2.74801000
  O     -3.53605000     -4.96339000     -3.52468000
  C      3.61054000     -4.76300000     -2.54219000
  O      3.83395000     -6.02748000     -2.60246000
  C      4.83741000     -1.28490000     -2.65839000
  O      5.80267000     -1.71925000     -3.39751000
  C      2.70239000     -4.21353000      3.23690000
  O      3.08908000     -5.10190000      4.12539000
  C      0.14650100      2.05563000      5.46731000
  O     -0.25474900      1.83919000      6.66679000
  C      2.59191000     -5.61755000     -0.29853000
  O      3.42591000     -6.49649000      0.12861800
  C      5.23227000     -0.43673500     -1.47503000
  O      6.41764000     -0.02770520     -1.20475000
  C      0.93169100     -5.48059000     -2.70170000
  O      0.82419100     -6.08189000     -3.83504000
  C     -2.15281000      2.51284000      4.62354000
  O     -2.26987000      3.57093000      5.34805000
  C      4.60953000     -3.80128000     -2.63968000
  O      5.86878000     -3.93883000     -2.87365000
  C     -1.86745000      5.34438000      2.81235000
  O     -1.74386000      6.04725000      3.89479000
  C     -2.26728000      1.06741000      5.35976000
  O     -3.00503000      1.19669000      6.41872000
  C     -5.23068000      1.98788000      1.30723000
  O     -5.93201000      2.93638000      1.80957000
