110
Energy = -12288.01579501 au
 Ni     -0.08538430     -3.78349000     -2.26952000
 Ni     -1.39372000     -0.32748300     -1.27358000
 Ni      0.39886100     -4.64613000      0.36662600
 Ni     -0.57350500      4.13231000     -0.31482000
 Ni     -1.25719000      2.36097000     -2.18639000
 Ni     -3.22120000      0.57143800      0.66591600
 Ni     -1.01832000     -1.02430000      1.37488000
 Ni     -0.30967400      3.54470000      2.17730000
 Ni      0.34744600     -1.07909000     -3.40824000
 Ni      3.27424000     -0.56484100     -0.74326800
 Ni      0.77897900     -1.79385000     -0.54951400
 Ni      2.54375000     -2.37124000     -2.49393000
 Ni      3.20936000      2.00295000     -1.45374000
 Ni      1.81104000     -0.24638400      3.73228000
 Ni      1.40487000      0.21274900      1.16214000
 Ni      2.67959000      0.37221100     -3.59260000
 Ni      1.11411000      3.83353000     -2.23674000
 Ni     -2.27814000     -2.26497000     -3.11655000
 Ni      3.69904000     -1.17430000      2.16596000
 Ni     -1.79538000     -3.12513000     -0.39271800
 Ni      3.75743000      1.33626000      1.38848000
 Ni      0.95097800      0.86464900     -1.38853000
 Ni     -2.07796000      0.54055300     -4.21216000
 Ni     -3.84518000     -1.45492000     -1.23533000
 Ni      2.02698000      2.30975000      3.00637000
 Ni     -0.33273500      0.99165900      3.30695000
 Ni      3.25363000     -3.19368000      0.19753200
 Ni     -1.45072000     -3.99801000      2.14276000
 Ni     -2.88315000      3.11418000      0.10280600
 Ni      1.88364000      3.13860000      0.53614000
 Ni     -2.59696000      2.62680000      2.37862000
 Ni     -2.95530000     -0.55238000      3.25299000
 Ni      0.43427400      1.63402000     -4.08626000
 Ni     -0.73553500      1.58487000      0.53066100
 Ni     -3.68712000     -2.30385000      1.52351000
 Ni     -0.75266400     -1.92554000      3.90971000
 Ni     -3.55996000      0.97420500     -2.16823000
 Ni      1.29034000     -2.49213000      2.15560000
  C      2.00453000      5.36090000     -1.28219000
  O      2.17603000      6.57375000     -1.69439000
  C     -4.95259000      1.52724000      1.22205000
  O     -5.84102000      2.41007000      0.91635800
  C      1.02961000     -0.70307700     -5.05476000
  O      1.00661000     -1.28768000     -6.29064000
  C      4.73447000     -2.60384000     -2.68760000
  O      5.27927000     -3.15420000     -3.71375000
  C      5.19048000     -1.31677000     -1.84025000
  O      6.11798000     -0.45583100     -2.03558000
  C     -2.33384000     -5.20095000     -2.73161000
  O     -2.98770000     -6.38355000     -2.92877000
  C      3.84126000     -3.63736000      2.37263000
  O      4.49750000     -3.90455000      3.44990000
  C     -0.12487500     -5.22297000      3.03099000
  O     -0.27040700     -5.79379000      4.17415000
  C     -2.61684000      2.23692000     -4.32316000
  O     -3.06533000      2.90704000     -5.44358000
  C      0.95002200     -5.56008000      2.11048000
  O      1.90137000     -6.42488000      2.21258000
  C      0.49771100      1.54100000      4.86412000
  O      0.12953700      1.94552000      6.10392000
  C     -3.06336000     -3.99062000     -3.16674000
  O     -4.23802000     -4.09573000     -3.68810000
  C     -2.24735000     -2.60256000      5.03101000
  O     -2.12627000     -3.16236000      6.18079000
  C     -0.85245400     -6.11068000      0.89569500
  O     -1.44001000     -7.19483000      0.51932600
  C      5.13173000     -2.78966000     -1.09504000
  O      6.09082000     -3.42865000     -0.52877800
  C     -3.44473000     -2.34507000      4.12671000
  O     -4.49587000     -2.96422000      4.56369000
  C      0.46160100      3.50397000     -4.93059000
  O     -0.52094700      3.84274000     -5.70257000
  C      0.66940500     -3.25917000      4.77450000
  O      0.37619700     -3.83707000      5.88758000
  C      4.50261000      0.02716850      3.25180000
  O      5.60493000      0.02597820      4.07442000
  C      3.88768000     -4.65629000      1.29311000
  O      4.38431000     -5.83062000      1.15676000
  C      3.70627000      1.50708000     -4.79130000
  O      4.39624000      1.19840000     -5.84414000
  C      1.82116000     -3.57280000      3.98040000
  O      2.52092000     -4.50397000      4.54692000
  C     -2.60507000      4.48058000      1.98952000
  O     -3.19284000      5.53261000      2.45177000
  C     -1.22948000      0.64579000     -5.91428000
  O     -1.35348000     -0.00634320     -7.04602000
  C     -4.26419000     -0.49896400     -3.36490000
  O     -5.37643000     -0.57447800     -4.13354000
  C     -1.12049000     -5.32749000     -2.11782000
  O     -0.78328600     -6.53436000     -1.91790000
  C     -5.27128000     -3.13266000      0.38374800
  O     -5.78706000     -4.30852000      0.45577200
  C     -3.03251000     -4.74303000      1.59751000
  O     -3.78443000     -5.65331000      2.13067000
  C     -2.90026000     -4.65681000      0.04103620
  O     -3.45636000     -5.56353000     -0.68416500
  C     -0.53578900     -3.01730000     -4.49716000
  O     -0.44168200     -3.53790000     -5.74434000
  C      3.40285000      2.79647000     -4.28444000
  O      3.63811000      3.98536000     -4.67744000
  C      3.23721000      3.71117000      2.35613000
  O      3.87163000      4.81352000      2.83283000
  C     -5.76442000      0.32398400      1.64791000
  O     -6.94166000      0.02569680      1.27669000
  C     -5.00442000     -0.69255600      2.57082000
  O     -5.91051000     -1.10917000      3.38431000
  C     -0.67250700      4.57330000     -2.79450000
  O     -1.13613000      5.47552000     -3.70958000
  C      2.59468000      4.86787000     -0.02361430
  O      3.47297000      5.48457000      0.69898100
