110
Energy = -12284.72019800 au
 Ni     -0.11925500     -3.68117000     -2.24290000
 Ni     -1.45684000     -0.26672800     -1.11700000
 Ni      0.63529000     -4.12365000      0.16363400
 Ni     -0.67235800      4.33683000     -0.12481800
 Ni     -1.23560000      2.40307000     -1.96592000
 Ni     -3.35306000      0.47400300      0.79794900
 Ni     -0.97172400     -0.89153800      1.35574000
 Ni     -0.18744800      3.64305000      2.56017000
 Ni      0.31925000     -0.99031100     -3.03516000
 Ni      3.33302000     -0.44685200     -0.62732100
 Ni      0.77810200     -1.65341000     -0.51280100
 Ni      2.69118000     -2.44623000     -2.34528000
 Ni      3.27135000      1.98517000     -1.37413000
 Ni      1.67167000     -0.37697400      3.78611000
 Ni      1.44636000      0.27642700      1.22871000
 Ni      2.59035000      0.12070000     -3.28400000
 Ni      1.18386000      3.36164000     -2.22168000
 Ni     -2.22059000     -2.29487000     -2.80941000
 Ni      3.83812000     -1.06012000      1.70050000
 Ni     -1.79930000     -2.91866000     -0.36029300
 Ni      3.95621000      1.67739000      1.33343000
 Ni      0.94047100      0.88719400     -1.28696000
 Ni     -1.80833000      0.39272100     -3.57268000
 Ni     -4.00665000     -1.42085000     -1.02327000
 Ni      2.16082000      2.37770000      3.23708000
 Ni     -0.25849800      1.08688000      3.23000000
 Ni      3.16750000     -3.16002000     -0.08164770
 Ni     -1.24012000     -3.41175000      2.04284000
 Ni     -3.05178000      3.04582000      0.02953020
 Ni      1.71945000      2.91859000      0.58535100
 Ni     -2.50904000      2.57836000      2.69098000
 Ni     -2.64835000     -0.25091400      3.19096000
 Ni      0.83955900      1.57633000     -4.11488000
 Ni     -0.77670300      1.68134000      0.62318100
 Ni     -3.56733000     -2.24080000      1.51217000
 Ni     -0.75412600     -1.45305000      4.18422000
 Ni     -3.75577000      1.12026000     -1.56404000
 Ni      1.16563000     -2.39302000      2.21462000
  C      1.33099000     -0.01701960     -5.48107000
  O      1.40930000     -0.16426800     -6.78648000
  C     -4.06781000     -3.56474000     -1.91045000
  O     -5.10672000     -4.30824000     -1.88175000
  C     -5.26879000     -0.62085700      1.58520000
  O     -6.49208000     -0.83414500      1.91376000
  C     -2.34639000      2.87940000      4.52605000
  O     -3.10566000      3.38426000      5.42340000
  C     -1.66261000      5.21936000      3.52565000
  O     -2.73535000      5.86810000      3.80038000
  C      4.62970000      1.26032000      3.39964000
  O      5.69808000      1.51481000      4.07988000
  C     -1.12631000      1.14736000      5.66223000
  O     -2.00757000      1.31556000      6.56595000
  C     -0.83023800      2.75199000      5.18281000
  O     -0.64911200      3.82129000      5.91601000
  C     -3.57714000      4.54767000      1.87722000
  O     -4.61936000      5.18212000      2.47223000
  C      2.40014000      2.40173000     -5.25036000
  O      3.15695000      2.23482000     -6.27497000
  C      4.81551000     -2.65895000     -2.14714000
  O      5.81742000     -2.49076000     -2.93670000
  C     -3.46461000     -2.82210000      4.21216000
  O     -4.42576000     -3.60135000      4.47533000
  C     -1.77684000     -4.88545000     -2.40114000
  O     -1.90829000     -6.15486000     -2.46918000
  C      2.52217000     -5.02922000     -1.59624000
  O      3.14063000     -6.15250000     -1.96479000
  C     -3.20038000     -4.44973000     -2.87185000
  O     -3.75484000     -5.09435000     -3.86601000
  C      3.23340000      4.56316000      1.53865000
  O      3.13893000      5.76948000      1.08478000
  C     -2.65695000      5.74829000      1.05808000
  O     -3.45320000      6.77188000      0.85011600
  C     -1.87335000      4.54894000     -2.48360000
  O     -2.36502000      5.28810000     -3.47262000
  C      2.11918000      3.61670000     -4.51603000
  O      2.51976000      4.72673000     -5.03086000
  C     -0.10350300     -0.03331620      5.65230000
  O      0.29327500     -0.14278400      6.87420000
  C     -0.36631700      5.71421000      3.68383000
  O     -0.11246500      6.89100000      4.14350000
  C      5.72609000     -1.18813000      0.97570700
  O      6.86591000     -1.61849000      1.39737000
  C     -2.89638000     -4.85067000      0.64500900
  O     -2.98007000     -6.07480000      0.26745800
  C     -5.59582000      0.91249300      0.85114300
  O     -6.33609000      1.52652000      1.75043000
  C     -5.69909000      0.11674300     -0.54640500
  O     -6.96322000      0.07450890     -0.73341600
  C     -4.05170000     -4.21067000      1.30489000
  O     -5.10182000     -4.91248000      1.56246000
  C      0.85797900     -4.22401000      3.74304000
  O      0.69341600     -5.39625000      4.22959000
  C      4.36674000      3.54910000      1.13146000
  O      5.41851000      4.26891000      1.35069000
  C      5.02333000     -3.16896000     -0.80788700
  O      6.19576000     -3.48863000     -0.33192400
  C      0.76745300      2.34818000      4.91306000
  O      1.15696000      2.36437000      6.13367000
  C      5.50280000     -0.61461300     -0.33710000
  O      6.50842000     -0.46895800     -1.13086000
  C     -1.17184000      6.08353000      1.07004000
  O     -0.82721100      7.22059000      1.54556000
  C     -2.41496000     -2.33324000      5.08228000
  O     -2.59878000     -2.60654000      6.33497000
  C     -5.17665000      2.38550000     -0.10811700
  O     -6.37723000      2.91383000     -0.24922400
  C      2.90619000      4.16251000      2.99912000
  O      3.59252000      5.00975000      3.66751000
  C      1.87320000     -3.33764000      4.18322000
  O      2.70900000     -3.56951000      5.12851000
