#B3LYP/6-31+G(d) OPT FREQ

110, Energy = -12069.53896155 au

0 1
 Ni      0.10496400     -3.61308000     -2.40387000
 Ni     -1.43767000     -0.23538900     -1.22817000
 Ni      0.72464100     -4.33010000      0.38219600
 Ni     -0.61852600      4.20564000     -0.51514000
 Ni     -1.32390000      2.48168000     -2.13486000
 Ni     -3.19469000      0.53726800      0.66814000
 Ni     -1.00147000     -0.94545500      1.36640000
 Ni     -0.01883970      3.44876000      2.23566000
 Ni      0.29360000     -1.04180000     -3.05182000
 Ni      3.28251000     -0.56040600     -0.64823400
 Ni      0.77241700     -1.69714000     -0.51912700
 Ni      2.75981000     -2.34068000     -2.30746000
 Ni      3.73478000      2.07877000     -1.57128000
 Ni      2.10625000     -0.27720300      4.29528000
 Ni      1.45928000      0.19154800      1.24826000
 Ni      2.72736000      0.28076400     -3.18307000
 Ni      1.05577000      3.57958000     -2.28632000
 Ni     -2.22532000     -2.45399000     -2.91110000
 Ni      3.64351000     -1.10263000      2.19753000
 Ni     -1.67615000     -2.92548000     -0.39648400
 Ni      4.10826000      1.26236000      0.99137500
 Ni      0.99633700      0.90821200     -1.33740000
 Ni     -2.15365000      0.29017200     -3.70371000
 Ni     -3.92960000     -1.19982000     -1.00950000
 Ni      2.14327000      2.14599000      2.97620000
 Ni     -0.21152200      0.93446600      3.28477000
 Ni      3.15590000     -3.14443000      0.26844700
 Ni     -1.01221000     -3.50337000      2.31604000
 Ni     -3.14467000      3.02528000     -0.23453300
 Ni      1.66772000      2.68564000      0.36532200
 Ni     -2.45861000      2.34220000      2.47856000
 Ni     -2.51418000     -0.04312020      3.47173000
 Ni      0.30536600      1.76146000     -3.86164000
 Ni     -0.75512800      1.62005000      0.52741500
 Ni     -3.42006000     -2.33780000      1.54437000
 Ni     -0.62175400     -1.57901000      4.14545000
 Ni     -3.98433000      1.40053000     -1.82203000
 Ni      1.27641000     -2.42015000      2.11479000
  C     -1.76225000     -2.49549000      5.65672000
  O     -2.07064000     -2.39735000      6.90200000
  C      3.23160000     -3.97321000      2.18312000
  O      4.26000000     -4.32911000      2.89922000
  C     -1.70080000      0.57908800      5.17535000
  O     -2.46673000      0.95795200      6.13601000
  C     -0.02933240      4.92302000     -3.67207000
  O      0.62117300      5.86184000     -4.20302000
  C     -3.84903000      3.38839000     -2.41320000
  O     -4.46302000      4.25956000     -3.31315000
  C      4.09527000      2.28875000     -3.79660000
  O      4.85083000      2.99046000     -4.51339000
  C      6.26404000      1.45906000     -0.26022600
  O      7.51239000      1.04205000     -0.39894100
  C     -2.71779000     -5.06671000     -1.43627000
  O     -2.40660000     -6.31571000     -1.37229000
  C     -0.39345400      0.45244800      6.03800000
  O     -0.39546000     -0.09402890      7.18002000
  C     -4.95531000     -3.78177000      1.79744000
  O     -5.95452000     -4.52784000      1.41943000
  C      6.08297000      1.08886000      1.25531000
  O      7.13091000      0.83538100      1.93943000
  C      0.91844500      0.89513200      5.30339000
  O      1.40929000      1.56990000      6.30691000
  C     -5.84753000      2.41825000     -2.34768000
  O     -7.06412000      2.45379000     -1.83479000
  C     -4.48332000     -3.41924000      3.07396000
  O     -4.73645000     -3.80814000      4.29027000
  C     -3.69368000     -0.78809300     -4.91207000
  O     -4.23273000     -1.53412000     -5.77569000
  C     -5.67694000      0.09197710     -0.93616600
  O     -6.92484000      0.21025700     -0.65069200
  C      0.71752700     -4.72561000      2.87385000
  O      0.56707400     -5.56152000      3.80472000
  C     -4.14826000      0.63027700     -4.67526000
  O     -5.14618000      1.17064000     -5.29090000
  C     -2.77613000     -4.17072000     -2.70667000
  O     -3.29895000     -5.02108000     -3.53403000
  C      2.59981000      4.46180000      2.78088000
  O      3.49529000      5.27501000      3.18778000
  C      2.19303000     -5.09851000      2.42622000
  O      2.53422000     -6.33087000      2.38542000
  C      0.86595900     -3.25907000     -4.56824000
  O      0.77932100     -3.89412000     -5.65916000
  C      2.02999000     -2.50728000      4.83778000
  O      2.77312000     -3.06186000      5.72048000
  C     -2.15315000      3.21713000      4.67432000
  O     -2.77457000      3.51817000      5.76183000
  C      3.85506000     -0.04575500      4.77824000
  O      4.24761000      0.40557500      5.91455000
  C     -2.05727000     -3.51789000      4.67851000
  O     -2.69884000     -4.56125000      5.00929000
  C     -5.09077000      2.32010000      0.42199600
  O     -6.24884000      2.82944000      0.63599700
  C      1.77377000     -5.57626000     -1.37990000
  O      2.19483000     -6.77434000     -1.52881000
  C      5.42405000     -0.61471500     -1.58258000
  O      6.73019000     -0.72414400     -1.53047000
  C      4.79648000     -0.48537700      3.70525000
  O      6.05425000     -0.40902500      3.91760000
  C     -3.26726000     -4.52492000     -0.18045800
  O     -3.96889000     -5.43954000      0.36972600
  C      5.56987000      2.12114000     -1.36251000
  O      6.58081000      2.55456000     -2.09319000
  C     -0.47524800      3.54212000     -4.36500000
  O     -1.29716000      4.03199000     -5.25120000
  C      4.70881000     -3.10663000     -1.07624000
  O      5.85400000     -3.64731000     -1.17275000
  C     -1.02851000      5.05344000     -2.36985000
  O     -1.91499000      5.80472000     -2.92405000
  C      5.06528000     -1.92834000     -2.12296000
  O      5.62258000     -1.93266000     -3.34361000

