#B3LYP/6-31+G(d) OPT FREQ

110, Energy = -11711.94560390 au

0 1
 Ni     -0.06012640     -3.86810000     -2.23661000
 Ni     -1.41588000     -0.23611600     -1.13505000
 Ni      0.62962600     -4.27248000      0.26746800
 Ni     -0.49523300      4.42118000     -0.25704000
 Ni     -1.20711000      2.36336000     -1.94072000
 Ni     -3.27034000      0.55478100      0.73337200
 Ni     -0.96050600     -0.87971600      1.34339000
 Ni     -0.22076900      3.68147000      2.54648000
 Ni      0.32035100     -0.95607500     -2.98985000
 Ni      3.37819000     -0.53440300     -0.68976300
 Ni      0.74318200     -1.66348000     -0.52494900
 Ni      2.44434000     -2.30528000     -2.37033000
 Ni      3.41489000      1.87932000     -1.39657000
 Ni      2.07893000     -0.43941100      4.01525000
 Ni      1.44638000      0.22486200      1.23320000
 Ni      2.93059000      0.16925300     -3.34277000
 Ni      1.15192000      3.53706000     -2.03680000
 Ni     -2.16767000     -2.12977000     -2.95581000
 Ni      3.86774000     -1.12635000      1.89726000
 Ni     -1.67531000     -2.90120000     -0.47166900
 Ni      3.85014000      1.30157000      1.07548000
 Ni      0.99483700      0.87278400     -1.31770000
 Ni     -1.80559000      0.40933500     -3.65595000
 Ni     -3.83157000     -1.30091000     -1.11866000
 Ni      2.13171000      2.17365000      3.13220000
 Ni     -0.22320300      1.07424000      3.20385000
 Ni      3.11989000     -2.99066000      0.03628480
 Ni     -1.15857000     -3.63805000      2.23223000
 Ni     -2.92576000      3.31304000     -0.27088900
 Ni      1.57406000      2.78740000      0.46226600
 Ni     -2.57088000      2.37743000      2.30645000
 Ni     -2.65955000     -0.14077200      3.22020000
 Ni      0.69193500      1.76231000     -3.97501000
 Ni     -0.75802100      1.66038000      0.57180900
 Ni     -3.26761000     -2.04904000      1.42781000
 Ni     -0.58608600     -1.43293000      4.16462000
 Ni     -3.52198000      1.33479000     -1.88176000
 Ni      1.16048000     -2.31011000      1.99375000
  C     -2.04774000      5.20602000     -1.73471000
  O     -2.38815000      6.24307000     -2.42597000
  C     -3.96810000     -1.68486000     -4.30909000
  O     -4.73033000     -2.17893000     -5.30982000
  C     -3.19646000      5.13900000      1.05614000
  O     -3.96668000      6.14513000      1.18460000
  C     -1.38029000     -5.34972000     -2.52632000
  O     -1.40302000     -6.51032000     -3.08780000
  C     -1.98531000     -3.14947000      4.86635000
  O     -2.53373000     -3.53422000      5.94549000
  C     -0.17938800     -0.40088800      5.80518000
  O     -0.79170100     -0.05786040      6.88450000
  C     -5.39080000      0.51183400      1.49859000
  O     -6.57744000      0.03689920      1.52698000
  C      3.96139000     -0.78828400      4.76918000
  O      4.59947000     -1.01668000      5.86781000
  C      0.58813900     -4.82049000      2.90191000
  O      0.86364600     -5.71423000      3.77607000
  C     -5.23858000     -1.70166000     -2.98010000
  O     -6.56103000     -1.77749000     -3.27672000
  C     -1.17684000      5.33865000      3.00952000
  O     -1.46459000      6.60180000      3.18773000
  C      3.54719000      1.84002000      5.49103000
  O      4.36319000      1.42962000      6.41889000
  C     -3.64137000      3.46221000     -2.56186000
  O     -4.23500000      4.29104000     -3.37876000
  C      4.12850000      2.12124000      4.07314000
  O      5.26169000      2.67642000      4.32113000
  C     -3.98255000     -1.48750000      4.71125000
  O     -4.60318000     -1.75388000      5.80802000
  C      0.54477300      4.69945000     -4.03232000
  O      0.00099654      5.76750000     -4.50569000
  C      5.60634000     -1.29533000      0.71042400
  O      6.86310000     -1.37314000      0.95881600
  C      1.59185000     -5.61587000     -1.55355000
  O      2.03091000     -6.76044000     -1.85670000
  C     -0.09842220      2.72212000      4.91698000
  O     -0.10772500      2.69495000      6.20502000
  C     -0.94216100      2.76994000     -5.31810000
  O     -1.05328000      3.80910000     -6.06786000
  C      5.54314000      0.83251000     -0.70059800
  O      6.79515000      0.72268600     -0.88775700
  C      2.01386000      1.22264000      5.86901000
  O      1.80848000      1.76888000      6.98306000
  C      5.13809000     -0.38361600      3.84784000
  O      6.00335000      0.54503500      4.07932000
  C      2.35874000     -0.64087900     -5.43356000
  O      2.87276000     -0.92710900     -6.57704000
  C     -2.45182000     -4.79014000     -1.72056000
  O     -3.51686000     -5.50103000     -1.61278000
  C      2.69308000      3.22503000      5.11937000
  O      2.41819000      3.95730000      6.13045000
  C     -0.67100300      3.99833000      4.46356000
  O     -1.16587000      4.86016000      5.27569000
  C     -2.98216000     -4.86920000      1.35923000
  O     -3.43307000     -6.05432000      1.39989000
  C      4.81419000     -0.43674100     -2.79444000
  O      6.02964000     -0.40114500     -3.28707000
  C     -5.02048000      1.79637000      2.00290000
  O     -5.95963000      2.58949000      2.37760000
  C      4.90510000     -3.18189000     -0.71067200
  O      5.91907000     -3.97869000     -0.71898000
  C      1.53169000      5.53238000     -0.12342000
  O      1.98331000      6.69909000      0.08832250
  C      5.66332000     -1.86601000     -0.71325700
  O      6.68025000     -1.71504000     -1.49644000
  C      2.68361000      2.28662000     -4.83656000
  O      3.18097000      2.92186000     -5.82580000
  C      5.70385000     -1.60975000      3.16479000
  O      6.73112000     -2.00999000      3.81899000
  C      1.29754000     -0.17762400      6.18844000
  O      1.80323000     -0.63693000      7.31507000

