110
Energy = -11957.58264595 au
 Ni      0.22209000     -3.56953000     -2.23399000
 Ni     -1.35563000     -0.20346900     -1.19698000
 Ni      0.60710100     -4.26322000      0.47090500
 Ni     -0.49252100      4.46515000     -0.48983100
 Ni     -1.19365000      2.37498000     -2.03429000
 Ni     -3.15717000      0.43449500      0.74260600
 Ni     -0.94969500     -0.90155800      1.39303000
 Ni     -0.05594660      3.40030000      2.34033000
 Ni      0.27606400     -0.98709900     -3.13826000
 Ni      3.32863000     -0.53591600     -0.67932900
 Ni      0.80056000     -1.63147000     -0.50226600
 Ni      2.58226000     -2.39679000     -2.36305000
 Ni      3.46177000      2.28781000     -1.37943000
 Ni      1.88711000     -0.49161500      3.78230000
 Ni      1.46554000      0.24129000      1.21692000
 Ni      2.76362000      0.17995400     -3.17208000
 Ni      1.16124000      3.66297000     -2.10160000
 Ni     -2.04231000     -2.09267000     -3.15587000
 Ni      3.69814000     -1.00508000      2.05058000
 Ni     -1.57146000     -2.69566000     -0.36576800
 Ni      4.15942000      1.60669000      1.17792000
 Ni      1.00979000      0.91241300     -1.32532000
 Ni     -1.84955000      0.46763700     -3.74978000
 Ni     -3.68448000     -1.33276000     -1.06677000
 Ni      2.32437000      2.05272000      3.00924000
 Ni     -0.28706300      0.98172300      3.34461000
 Ni      3.11071000     -2.96794000      0.15911300
 Ni     -1.24417000     -3.49306000      2.24722000
 Ni     -2.82617000      3.15215000     -0.23123500
 Ni      1.75872000      2.88324000      0.39543800
 Ni     -2.35655000      2.28107000      2.48424000
 Ni     -2.93409000     -0.44014000      3.25357000
 Ni      0.50116700      1.69682000     -3.85870000
 Ni     -0.70406900      1.64886000      0.51166800
 Ni     -3.55519000     -2.16075000      1.64942000
 Ni     -0.62762800     -1.56283000      4.11609000
 Ni     -3.43232000      1.25401000     -1.94874000
 Ni      1.31410000     -2.41923000      2.21848000
  C      1.87719000      5.26052000     -0.44141700
  O      2.57732000      6.36801000     -0.31374400
  C     -2.79414000     -2.91189000      4.96677000
  O     -3.22556000     -4.02212000      5.49962000
  C      4.70164000     -0.11196400      3.85202000
  O      5.70211000     -0.74293000      4.36085000
  C      5.99598000      1.00446000      0.44673100
  O      7.17195000      1.54646000      0.47425300
  C     -0.06479100      0.25285200      5.51067000
  O     -0.26920500      0.68747700      6.76119000
  C     -3.75502000     -1.89327000      4.33808000
  O     -4.90980000     -2.03448000      4.88754000
  C      4.38506000      1.39169000     -4.43142000
  O      4.72282000      1.90427000     -5.56421000
  C     -1.73727000      3.83621000     -4.08576000
  O     -1.76914000      4.50142000     -5.18761000
  C      4.22128000      3.96293000     -0.18697000
  O      4.71505000      5.06512000     -0.63841600
  C     -0.91516500     -1.60414000     -5.18907000
  O     -0.77887100     -2.05131000     -6.39297000
  C     -5.15157000     -0.50652100      1.99485000
  O     -6.42870000     -0.42704900      2.23736000
  C      1.84380000     -3.57036000      3.94914000
  O      1.75521000     -4.66024000      4.61960000
  C      3.14794000     -4.53386000      1.94443000
  O      3.76764000     -5.37873000      2.65230000
  C      0.25067200     -5.50097000      2.64256000
  O      0.25811700     -6.14076000      3.76543000
  C     -0.56990000      4.91047000     -3.23662000
  O     -0.10831300      5.67622000     -4.17028000
  C      2.15845000     -4.93500000     -2.75386000
  O      2.57587000     -6.05270000     -3.17115000
  C      3.95443000      3.84444000     -3.04521000
  O      4.86089000      4.17420000     -3.88845000
  C      5.24685000     -1.89473000     -0.94957000
  O      6.06483000     -2.86490000     -0.76640600
  C      3.84094000      0.63155900      5.14417000
  O      4.59879000      0.66737700      6.21015000
  C     -2.85590000      2.80843000     -3.88322000
  O     -3.87742000      3.16589000     -4.58274000
  C     -4.12920000     -4.26265000      1.47506000
  O     -4.87485000     -5.08762000      0.85330600
  C     -2.83333000      4.87651000     -1.61930000
  O     -3.66104000      5.61467000     -2.35213000
  C      2.56029000      0.20636200      6.28281000
  O      2.14624000      0.36398500      7.47992000
  C     -1.05028000      5.69281000     -1.94075000
  O     -1.41310000      6.93043000     -2.06249000
  C      4.34087000      3.71409000      1.28846000
  O      4.86450000      4.58727000      2.07223000
  C      3.05207000     -2.73310000      4.06424000
  O      4.00480000     -3.18136000      4.80063000
  C      5.76510000     -0.45441700      0.13835400
  O      6.99389000     -0.85736100     -0.01557440
  C      4.06032000      2.09166000      4.32310000
  O      4.45158000      3.08489000      5.04111000
  C      4.92595000     -1.26234000     -2.30599000
  O      6.02702000     -1.09932000     -2.96435000
  C     -1.42246000     -2.75692000      5.55411000
  O     -1.32952000     -3.19718000      6.75459000
  C      1.16479000     -6.04107000      1.66023000
  O      1.89039000     -7.08200000      1.84500000
  C     -0.90473700      2.74300000      4.70372000
  O     -0.93736600      3.00083000      5.96466000
  C      5.09602000      1.37733000      3.29684000
  O      6.32296000      1.80308000      3.32850000
  C     -3.66944000     -4.10810000      2.86548000
  O     -4.29926000     -4.76360000      3.77555000
  C      0.85058100      3.43209000     -5.59170000
  O      0.27381600      4.27791000     -6.37437000
  C     -4.02403000     -1.75379000     -4.34559000
  O     -4.81845000     -2.29516000     -5.20350000
