110
Energy = -12632.13317285 au
 Ni      0.16652900     -3.55330000     -2.59210000
 Ni     -1.44126000     -0.28159900     -1.35580000
 Ni      0.77706100     -4.33271000     -0.22431300
 Ni     -0.72704300      4.59046000     -0.41959600
 Ni     -1.36046000      2.42142000     -2.12413000
 Ni     -3.26103000      0.45796500      0.65603200
 Ni     -1.07520000     -0.86040400      1.22665000
 Ni     -0.03962840      3.35942000      2.29974000
 Ni      0.43767000     -1.08904000     -3.54995000
 Ni      3.40937000     -0.54252800     -0.68065800
 Ni      0.81162000     -1.68952000     -0.74899400
 Ni      2.69103000     -2.49593000     -2.62507000
 Ni      3.53599000      1.82962000     -1.30910000
 Ni      1.81741000     -0.44291100      3.53176000
 Ni      1.41519000      0.22963300      1.11812000
 Ni      2.84910000      0.01773870     -3.39971000
 Ni      1.01755000      3.43178000     -2.05386000
 Ni     -2.12235000     -2.24764000     -3.27799000
 Ni      3.64589000     -1.28146000      1.75188000
 Ni     -1.69707000     -2.84173000     -0.57717400
 Ni      3.97563000      1.21233000      1.27630000
 Ni      1.00065000      0.81330200     -1.46025000
 Ni     -1.73456000      0.44990200     -3.91715000
 Ni     -3.84611000     -1.53175000     -1.16881000
 Ni      2.32284000      2.12090000      3.17904000
 Ni     -0.34131800      1.06960000      3.30059000
 Ni      3.19447000     -2.96282000     -0.11525800
 Ni     -1.51188000     -3.31644000      2.03965000
 Ni     -3.14801000      3.08065000     -0.27831700
 Ni      1.62851000      2.63003000      0.40187100
 Ni     -2.62492000      2.26038000      2.41434000
 Ni     -2.87315000     -0.11007200      3.16101000
 Ni      0.49942000      1.60421000     -3.87635000
 Ni     -0.86295100      1.66760000      0.45456000
 Ni     -3.70838000     -1.91444000      1.40829000
 Ni     -0.73086700     -1.47863000      3.73432000
 Ni     -3.74652000      0.99870400     -1.76876000
 Ni      1.07804000     -2.30169000      1.73709000
  C      5.21570000     -2.49187000      0.58634600
  O      6.18277000     -3.30102000      0.85749100
  C     -4.11728000     -4.46140000      0.25597000
  O     -4.73828000     -5.59300000      0.21570900
  C      1.89410000     -5.43746000     -2.08488000
  O      2.70989000     -5.87320000     -2.97019000
  C     -1.29634000      0.91712600      4.99214000
  O     -1.23997000      1.48676000      6.18365000
  C     -4.27674000     -3.52384000     -0.92793000
  O     -4.96110000     -3.95462000     -1.93738000
  C     -2.85656000     -3.39141000      3.96064000
  O     -3.16102000     -3.38415000      5.17742000
  C      5.06048000     -1.29395000     -3.00558000
  O      5.91270000     -1.60517000     -3.92626000
  C     -5.32392000      2.25326000     -0.02898610
  O     -6.03450000      3.08759000     -0.71066100
  C     -0.72657200      5.04773000     -2.38281000
  O     -0.49841600      6.18830000     -2.94068000
  C     -5.24320000     -0.78786600      2.73684000
  O     -6.03880000     -0.51907400      3.70878000
  C      4.14893000      2.09668000      3.90245000
  O      4.52792000      2.67238000      4.99408000
  C     -5.63070000     -1.46601000      1.50238000
  O     -6.72098000     -1.77645000      0.89967800
  C      5.40840000     -1.17182000     -0.18682600
  O      6.54486000     -0.87500400     -0.70498100
  C     -1.40464000     -2.01846000     -5.11864000
  O     -1.45549000     -2.96332000     -5.99956000
  C     -3.86721000     -4.14533000      3.23341000
  O     -5.02895000     -4.57712000      3.53622000
  C      2.53483000     -0.29160700     -5.34334000
  O      3.29678000     -0.05641570     -6.35702000
  C     -3.29688000     -4.62062000      1.76186000
  O     -3.10735000     -5.84020000      2.09263000
  C     -0.93906200      2.69268000     -4.90701000
  O     -1.01584000      3.60374000     -5.83610000
  C     -1.36761000      6.75845000     -0.33313500
  O     -1.94301000      7.50810000     -1.20767000
  C      5.36391000      0.36663700     -2.64646000
  O      6.18486000      0.80171600     -3.54572000
  C      4.99743000      1.32482000      2.97706000
  O      6.18683000      0.89462800      3.23161000
  C     -2.03581000     -4.37628000     -2.41823000
  O     -2.67153000     -5.54651000     -2.56898000
  C     -2.25124000      4.65505000     -2.76842000
  O     -2.69413000      4.81983000     -3.95738000
  C      0.91670100     -3.57369000     -4.45663000
  O      0.43044500     -4.17019000     -5.49302000
  C      1.01769000      2.66328000      4.63945000
  O      1.08632000      3.07003000      5.91350000
  C      4.56528000     -2.55300000     -2.14494000
  O      5.30981000     -3.59222000     -1.96755000
  C     -4.06308000     -1.99429000     -3.80004000
  O     -4.79371000     -2.32673000     -4.82567000
  C      1.26510000     -1.00063000     -5.48608000
  O      0.91295000     -1.50262000     -6.62021000
  C     -5.39675000      2.36499000      1.60415000
  O     -6.59040000      2.84197000      1.70024000
  C     -1.32953000     -0.52533600     -5.51934000
  O     -1.18655000      0.01138970     -6.68400000
  C      1.45987000     -6.02698000     -0.83846200
  O      1.58031000     -7.20350000     -0.32836300
  C     -5.28807000      0.68264500     -0.45736400
  O     -6.52878000      0.32865700     -0.45074200
  C     -4.54450000      1.87399000      2.78296000
  O     -5.09233000      1.88990000      3.95395000
  C      5.33528000      1.13462000     -1.26554000
  O      6.35751000      1.61870000     -0.64718500
  C     -3.15524000      4.64939000     -1.48686000
  O     -4.04325000      5.56743000     -1.60760000
  C      2.37027000     -3.13073000     -4.39984000
  O      3.22684000     -3.21264000     -5.35796000
