110
Energy = -12081.33802614 au
 Ni      0.12495700     -3.53001000     -2.65349000
 Ni     -1.42581000     -0.24783400     -1.22658000
 Ni      0.37975200     -4.39378000      0.38835800
 Ni     -0.32690500      4.44821000     -0.33012900
 Ni     -1.24395000      2.41540000     -2.06795000
 Ni     -3.28235000      0.51649100      0.75040700
 Ni     -1.01271000     -0.99267800      1.34132000
 Ni     -0.21845600      3.60818000      2.25332000
 Ni      0.35140400     -1.00087000     -3.17164000
 Ni      3.43931000     -0.58140300     -0.75953700
 Ni      0.74228700     -1.72908000     -0.56143800
 Ni      2.50928000     -2.43597000     -2.78706000
 Ni      3.55394000      1.99268000     -1.51374000
 Ni      2.18118000     -0.30355500      3.72672000
 Ni      1.45257000      0.14244000      1.16041000
 Ni      2.71635000      0.18673400     -3.27372000
 Ni      1.19978000      3.50342000     -2.12079000
 Ni     -1.91146000     -2.14332000     -3.07758000
 Ni      3.79154000     -1.39076000      2.20172000
 Ni     -1.83162000     -2.99211000     -0.35916200
 Ni      3.90967000      1.23973000      1.00555000
 Ni      1.01635000      0.89075600     -1.34644000
 Ni     -2.20364000      0.57576200     -3.85201000
 Ni     -3.94752000     -1.29767000     -0.87095100
 Ni      2.01905000      2.07364000      2.81481000
 Ni     -0.34414000      0.88027000      3.16731000
 Ni      2.92751000     -2.97442000      0.30381200
 Ni     -1.19053000     -3.71829000      2.25313000
 Ni     -2.93268000      3.03169000     -0.18524800
 Ni      1.70886000      3.01115000      0.28700300
 Ni     -2.45028000      2.50790000      2.41672000
 Ni     -2.74957000     -0.29034400      3.31746000
 Ni      0.19956800      1.73316000     -4.01767000
 Ni     -0.72453200      1.64920000      0.51269400
 Ni     -3.58135000     -2.34764000      1.38314000
 Ni     -0.40583000     -1.63711000      3.97271000
 Ni     -3.68997000      1.17091000     -1.63906000
 Ni      1.29951000     -2.59448000      2.23437000
  C     -5.55017000     -0.88521700      0.39493700
  O     -6.65708000     -1.38874000      0.83122700
  C      1.32129000      5.62605000      0.02846980
  O      1.37858000      6.88167000      0.35971600
  C     -3.25405000     -4.45663000     -0.30767000
  O     -3.26351000     -5.68568000     -0.68788700
  C      4.17477000      2.83350000     -3.57497000
  O      5.10528000      3.60341000     -4.01436000
  C     -0.76987500      2.59184000     -5.72222000
  O     -0.65681700      3.09727000     -6.87915000
  C      0.29740300      4.33124000     -4.05133000
  O     -0.21362800      5.23055000     -4.76054000
  C     -6.07869000      0.50196100     -0.19353800
  O     -7.17241000      0.58143400     -0.84751100
  C      5.41921000     -0.86269500     -1.00935000
  O      6.34900000     -1.68677000     -0.69894900
  C      5.94947000      1.83422000      0.03446980
  O      7.09875000      1.26827000     -0.04126590
  C     -3.48898000     -2.83304000      3.87572000
  O     -4.24623000     -2.76544000      4.94678000
  C     -3.79658000      0.07560370     -4.90463000
  O     -4.36417000      0.61641000     -5.95008000
  C      2.96644000     -3.97493000      2.99670000
  O      3.03316000     -4.77032000      3.99297000
  C      3.97010000      0.09858070      4.61370000
  O      4.42261000      0.78881300      5.60816000
  C      4.20047000     -3.40288000      2.30757000
  O      5.23761000     -4.07447000      2.69211000
  C     -1.87832000      2.69332000     -4.73084000
  O     -2.72510000      3.69543000     -4.85360000
  C     -0.67759600     -6.14295000      0.70435900
  O     -1.45713000     -7.07959000      0.35317100
  C     -5.13066000      1.76984000      0.10285000
  O     -6.05695000      2.61332000      0.40406400
  C     -3.16690000     -4.43126000      3.69108000
  O     -3.40172000     -5.19709000      4.70949000
  C     -4.44792000     -0.97279000     -4.21329000
  O     -5.52027000     -1.65120000     -4.31688000
  C      1.60683000     -3.06395000     -4.51800000
  O      1.95732000     -2.91680000     -5.73206000
  C      4.70299000     -3.07774000     -2.35221000
  O      5.80372000     -3.06544000     -3.02706000
  C     -4.28054000     -3.97265000      0.65296400
  O     -5.33334000     -4.62227000      1.00038000
  C      5.36066000      0.16662100     -2.05378000
  O      6.35058000      0.65826200     -2.68883000
  C     -5.11441000     -0.21925300      3.12346000
  O     -6.11712000      0.24823400      3.78969000
  C      0.39250900     -4.13436000     -4.60888000
  O      0.64528400     -5.32187000     -5.06863000
  C      0.66995800     -4.90891000      3.10305000
  O      1.05724000     -5.91944000      3.78569000
  C     -0.94574800     -3.32791000     -4.69208000
  O     -1.12563000     -3.37473000     -5.95398000
  C      0.54066600     -3.67187000      4.08468000
  O      1.10267000     -3.91702000      5.22283000
  C      2.63170000      4.94118000     -0.17304700
  O      3.78838000      5.50184000     -0.27412500
  C     -2.14685000      4.79269000      2.93659000
  O     -2.64885000      5.84060000      3.31908000
  C      0.46078300     -6.17678000      1.69038000
  O      1.15499000     -7.24600000      1.84775000
  C     -2.67573000     -5.14058000      2.45187000
  O     -3.14614000     -6.25101000      2.03239000
  C      2.25015000     -0.38027600     -5.50261000
  O      2.88162000     -0.78187500     -6.55276000
  C     -1.00532000      0.18805600      5.38284000
  O     -1.00853000      0.44657700      6.64224000
  C     -2.13297000      4.76151000     -1.81033000
  O     -2.56274000      5.92660000     -2.60472000
  C      4.83028000     -0.60633300      3.63993000
  O      6.09079000     -0.75616800      3.89170000
