110
Energy = -12030.17782117 au
 Ni      0.26196400     -3.74640000     -2.43449000
 Ni     -1.38029000     -0.20479400     -1.20010000
 Ni      0.49868700     -4.25546000      0.23479800
 Ni     -0.35291700      4.32976000     -0.13906700
 Ni     -1.27572000      2.43086000     -2.07216000
 Ni     -3.30690000      0.65046700      0.77332800
 Ni     -0.95650400     -0.84757400      1.30785000
 Ni     -0.06103730      3.77412000      2.25833000
 Ni      0.36239100     -1.07500000     -3.28763000
 Ni      3.04310000     -0.51980300     -0.67169700
 Ni      0.76735900     -1.68735000     -0.57265800
 Ni      2.44316000     -2.40920000     -2.57601000
 Ni      3.68296000      1.91660000     -1.49900000
 Ni      1.83461000     -0.35469900      3.61049000
 Ni      1.39219000      0.27332200      1.17450000
 Ni      2.56469000      0.07108360     -3.33922000
 Ni      1.33067000      3.37106000     -1.98569000
 Ni     -1.93817000     -2.08038000     -3.10764000
 Ni      3.56907000     -1.07603000      1.87631000
 Ni     -1.55262000     -2.70348000     -0.43735600
 Ni      4.05624000      1.32197000      1.08124000
 Ni      0.96296600      0.89065800     -1.32577000
 Ni     -1.75694000      0.38285400     -3.78643000
 Ni     -3.78305000     -1.32527000     -1.13928000
 Ni      2.24970000      2.28582000      2.83714000
 Ni     -0.36742800      1.08066000      3.13407000
 Ni      2.91030000     -3.39087000      0.18132000
 Ni     -0.99289200     -3.48791000      2.11476000
 Ni     -3.03094000      3.15429000     -0.22879700
 Ni      1.78778000      2.91552000      0.46503700
 Ni     -2.36674000      2.49750000      2.52660000
 Ni     -2.70115000     -0.22465500      3.41569000
 Ni      0.41954200      1.64548000     -3.84017000
 Ni     -0.74598900      1.69663000      0.52808200
 Ni     -3.27725000     -1.99577000      1.59135000
 Ni     -0.52219600     -1.51526000      3.73808000
 Ni     -3.45520000      1.30734000     -1.90795000
 Ni      1.28354000     -2.51151000      2.02026000
  C      2.29110000     -0.88451300     -5.21606000
  O      2.15894000     -0.59772500     -6.47259000
  C     -3.33696000      3.54097000     -2.93884000
  O     -3.78966000      3.92607000     -4.08137000
  C     -3.95695000     -2.32144000      4.10701000
  O     -4.74373000     -3.29791000      4.39712000
  C      2.95987000     -2.35813000     -5.03149000
  O      2.77397000     -2.95201000     -6.18590000
  C      4.05067000     -3.26218000     -4.48473000
  O      4.73552000     -4.03135000     -5.24656000
  C      4.02626000      3.78454000      2.49214000
  O      4.45104000      4.97622000      2.18821000
  C      3.66509000     -4.50542000      1.70104000
  O      4.55728000     -5.42326000      1.78079000
  C     -3.52090000     -1.43704000      5.10399000
  O     -3.74932000     -1.53426000      6.36560000
  C     -0.26402600     -3.83425000     -4.80736000
  O     -1.08400000     -4.28988000     -5.71082000
  C     -0.80456200      5.69984000      3.06677000
  O     -0.71515100      6.92909000      3.43445000
  C     -5.09172000      2.53368000      0.90096700
  O     -6.10564000      3.32789000      0.98859900
  C      2.85622000      4.84126000     -0.01971720
  O      3.70389000      5.75164000     -0.32089300
  C     -5.01790000     -1.64504000     -3.16577000
  O     -6.19200000     -1.79699000     -3.69035000
  C      2.12615000      4.57412000      4.80519000
  O      2.78381000      5.66713000      5.03069000
  C      4.94806000      3.18237000      3.41298000
  O      5.98592000      3.69701000      3.93354000
  C      1.94061000     -6.61089000      0.16154900
  O      2.39695000     -7.76236000      0.38828100
  C      1.56929000     -5.89343000      1.73770000
  O      2.23398000     -6.80882000      2.36245000
  C     -3.22290000      4.57638000     -1.87202000
  O     -3.49656000      5.80300000     -2.12376000
  C      5.88902000      0.95295300      0.06727710
  O      7.07619000      0.62496600      0.45194800
  C      0.74610800     -6.57337000     -0.98192800
  O      0.41050800     -7.75855000     -1.33506000
  C      1.42464000     -5.68550000     -2.14742000
  O      1.74417000     -6.38922000     -3.18272000
  C      0.05716360     -2.30782000     -5.30494000
  O      0.71210600     -2.55110000     -6.36142000
  C      4.82843000      0.61094100      3.41329000
  O      5.84425000      0.75861700      4.16901000
  C      3.94608000      3.36383000     -3.35814000
  O      4.88827000      3.81974000     -4.10660000
  C     -1.27593000     -1.49284000     -5.31564000
  O     -1.67618000     -1.73275000     -6.52147000
  C      2.65635000     -5.55458000     -1.02996000
  O      3.69962000     -6.23262000     -1.34408000
  C     -1.72590000      1.80998000      4.88246000
  O     -1.69734000      2.22585000      6.12882000
  C     -5.28102000      1.20531000      1.38067000
  O     -6.36650000      0.73121500      1.88133000
  C      0.98121600     -4.89984000      2.84270000
  O      0.73389600     -5.49275000      3.95336000
  C      0.78418300      5.81247000      0.78121200
  O      1.03069000      7.08878000      0.71374400
  C      5.60945000      1.19406000     -1.32915000
  O      6.53274000      1.03379000     -2.21932000
  C     -2.06007000      5.06339000      2.89508000
  O     -3.05818000      5.82991000      3.11879000
  C     -1.28632000      3.02686000     -4.52829000
  O     -1.62383000      3.97256000     -5.36006000
  C      2.69393000     -4.24686000      2.83387000
  O      3.05511000     -4.42978000      4.07069000
  C      2.19753000      5.32264000      1.24309000
  O      2.69023000      5.96872000      2.21625000
  C      0.94506700     -4.60706000     -4.37375000
  O      1.62064000     -4.96602000     -5.38931000
