#B3LYP/6-31+G(d) OPT FREQ

110, Energy = -12240.29785845 au

0 1
 Ni     -0.10316600     -3.64805000     -2.53414000
 Ni     -1.44204000     -0.30368100     -1.26775000
 Ni      0.30842100     -4.46585000      0.32865400
 Ni     -0.67468100      4.29848000     -0.28253500
 Ni     -1.19901000      2.34192000     -2.04134000
 Ni     -3.10411000      0.49152700      0.61717400
 Ni     -0.98085800     -0.90664200      1.31574000
 Ni     -0.23705700      3.66990000      2.55624000
 Ni      0.36873700     -1.16471000     -3.45445000
 Ni      3.22406000     -0.53732700     -0.60109300
 Ni      0.70085700     -1.72194000     -0.65648300
 Ni      2.58761000     -2.44708000     -2.64318000
 Ni      3.57078000      1.77338000     -1.40235000
 Ni      1.83985000     -0.42437000      3.60234000
 Ni      1.44882000      0.18635200      1.13858000
 Ni      2.79826000     -0.02190010     -3.28746000
 Ni      1.03181000      3.44449000     -2.20745000
 Ni     -2.30683000     -2.22568000     -2.96490000
 Ni      3.89178000     -1.08847000      1.89863000
 Ni     -1.87428000     -3.03050000     -0.45770400
 Ni      4.26246000      1.33508000      1.19916000
 Ni      0.99516700      0.81586000     -1.40235000
 Ni     -1.87239000      0.31663000     -3.85460000
 Ni     -4.04256000     -1.40497000     -1.11861000
 Ni      2.13415000      2.05369000      2.86650000
 Ni     -0.39592100      1.07471000      3.27228000
 Ni      3.04554000     -2.86508000      0.04031310
 Ni     -1.11523000     -3.60557000      2.01424000
 Ni     -2.90113000      3.13018000     -0.18653200
 Ni      1.60284000      2.66986000      0.38263500
 Ni     -2.50791000      2.54429000      2.78694000
 Ni     -2.72871000     -0.22555800      3.64649000
 Ni      0.63955900      1.25189000     -4.10721000
 Ni     -0.74452100      1.65114000      0.59330600
 Ni     -3.37963000     -2.11415000      1.24679000
 Ni     -0.73372400     -1.64407000      3.81840000
 Ni     -3.84865000      1.05861000     -2.06030000
 Ni      1.17549000     -2.37377000      1.89692000
  C      5.49983000      0.87106100     -1.41500000
  O      6.45488000      1.36491000     -2.13384000
  C     -1.15380000      5.61823000      1.91004000
  O     -1.65137000      6.65445000      2.46561000
  C     -3.60606000     -1.54256000      4.82757000
  O     -4.75302000     -1.64400000      5.41446000
  C     -3.52190000      4.48456000      2.51906000
  O     -3.92416000      5.38649000      3.32644000
  C     -0.50516500      3.14188000      4.55738000
  O     -0.09162670      3.52818000      5.71306000
  C      1.48609000      0.37012100     -5.67695000
  O      1.67793000      0.71803000     -6.90088000
  C     -2.02147000      2.75559000      4.92320000
  O     -2.83792000      3.54850000      5.54241000
  C      5.15749000     -1.93834000     -0.23639300
  O      6.40199000     -1.96627000      0.08634410
  C     -0.94538500     -0.43862300     -5.45514000
  O     -0.90774900     -0.73901600     -6.77203000
  C     -2.50752000     -2.46225000      4.99066000
  O     -2.63873000     -3.50357000      5.73925000
  C      5.07150000      1.90242000      2.84938000
  O      6.10541000      2.53177000      3.28040000
  C     -3.75057000     -3.84816000     -2.54808000
  O     -4.85406000     -4.46568000     -2.47688000
  C     -3.91096000      2.17762000     -3.86582000
  O     -3.97690000      3.33739000     -4.40981000
  C      4.59100000     -1.51121000     -3.98494000
  O      5.40947000     -2.03320000     -4.82377000
  C     -0.61588600      4.64892000     -2.97241000
  O     -0.87095200      5.55929000     -3.86671000
  C     -4.78497000      0.93831600     -3.87699000
  O     -5.99960000      1.20506000     -4.21918000
  C     -0.56134900     -4.86912000     -4.37411000
  O     -0.72106700     -5.70608000     -5.32543000
  C      0.92337300     -4.95959000      2.46300000
  O      1.35815000     -6.00572000      3.11651000
  C      5.15910000     -2.15118000     -1.78265000
  O      5.71637000     -3.13787000     -2.39661000
  C      5.11452000     -0.60608800      3.26394000
  O      6.20522000     -1.03202000      3.79593000
  C     -3.53886000     -4.34650000     -0.14229000
  O     -3.71206000     -5.61336000     -0.33615700
  C     -1.43159000     -5.74853000     -1.02266000
  O     -1.51007000     -6.92139000     -1.54434000
  C     -2.76211000      4.92378000     -1.47805000
  O     -3.46825000      5.74686000     -2.21101000
  C     -2.06242000      1.13630000      5.04144000
  O     -2.04163000      1.05048000      6.32458000
  C      5.73560000      0.89000100      0.09733380
  O      6.96289000      0.83337300      0.49713700
  C     -4.80332000     -3.59475000      0.15801600
  O     -5.90034000     -4.26148000      0.17086600
  C      4.97155000      0.78471400      3.86543000
  O      4.97309000      1.00941000      5.13894000
  C     -5.60316000      0.15656100     -0.84901200
  O     -6.89530000      0.29001700     -0.67266200
  C     -2.34001000     -4.67376000     -2.41875000
  O     -2.60392000     -5.73595000     -3.11365000
  C      1.44425000     -1.10598000     -5.30876000
  O      1.66049000     -2.00790000     -6.19387000
  C     -4.18731000     -2.49794000     -3.68335000
  O     -4.78440000     -3.16818000     -4.58982000
  C     -4.75637000     -0.95005300     -3.59962000
  O     -5.80318000     -1.02715000     -4.34578000
  C     -1.34129000     -5.68857000      0.51755600
  O     -1.72075000     -6.73297000      1.17272000
  C      5.29457000     -0.85919800     -2.75594000
  O      6.52206000     -0.57175400     -3.07224000
  C      1.68719000     -3.68703000     -4.38016000
  O      2.27791000     -4.32281000     -5.32732000
  C      0.23324600     -3.72907000     -4.96791000
  O     -0.25231100     -3.17268000     -6.02411000

