#B3LYP/6-31+G(d) OPT FREQ

110, Energy = -12293.22738961 au

0 1
 Ni     -0.05535420     -3.61202000     -2.08540000
 Ni     -1.45963000     -0.20697100     -1.25058000
 Ni      0.33915400     -4.74760000      0.39780500
 Ni     -0.57792800      4.34914000     -0.46783800
 Ni     -1.30642000      2.39404000     -2.04741000
 Ni     -3.33942000      0.54095000      0.68880700
 Ni     -1.05386000     -0.87358800      1.30952000
 Ni     -0.10202700      3.45265000      2.51507000
 Ni      0.32500400     -1.03056000     -3.32835000
 Ni      3.24057000     -0.42412300     -0.76757000
 Ni      0.70227700     -1.60002000     -0.56632000
 Ni      2.39287000     -2.21225000     -2.50728000
 Ni      3.62137000      2.16880000     -1.73109000
 Ni      2.16149000     -0.24492700      3.87172000
 Ni      1.43674000      0.25408400      1.24708000
 Ni      2.94813000      0.30293500     -3.58880000
 Ni      1.26802000      3.53451000     -2.09305000
 Ni     -2.13129000     -2.12911000     -3.13030000
 Ni      3.78659000     -1.07934000      2.03431000
 Ni     -1.60869000     -2.78627000     -0.39193300
 Ni      3.85855000      1.36302000      1.18462000
 Ni      1.02026000      0.87802400     -1.36926000
 Ni     -1.97771000      0.24710100     -3.86281000
 Ni     -3.79792000     -1.47007000     -1.13566000
 Ni      2.39229000      2.39911000      3.17405000
 Ni     -0.21935500      1.00892000      3.21090000
 Ni      2.80716000     -2.94491000      0.11459600
 Ni     -1.04989000     -3.48252000      2.12348000
 Ni     -3.03998000      3.14379000     -0.32704700
 Ni      1.67483000      2.78619000      0.40798100
 Ni     -2.67519000      2.58419000      2.85029000
 Ni     -2.78170000     -0.10006900      3.05730000
 Ni      0.80206800      1.61975000     -3.86126000
 Ni     -0.82656800      1.68278000      0.57895900
 Ni     -3.71010000     -2.20847000      1.35943000
 Ni     -0.41519100     -1.29433000      3.94501000
 Ni     -3.89227000      0.99143400     -1.85830000
 Ni      1.16035000     -2.16940000      1.95227000
  C      2.48265000      4.40710000      2.71596000
  O      3.33503000      5.28263000      3.13049000
  C     -1.52256000     -0.95431500     -5.75560000
  O     -1.78028000     -0.40269000     -6.88799000
  C      3.01189000      1.54581000     -5.08032000
  O      3.72575000      1.51617000     -6.15068000
  C      3.00868000      2.97026000     -4.56935000
  O      2.71749000      4.06267000     -5.18668000
  C      0.10950200      0.20907800      5.45202000
  O     -0.71171600      0.42777000      6.43401000
  C     -2.80275000      4.21690000     -2.81094000
  O     -2.75501000      5.04022000     -3.79518000
  C     -1.17932000      3.43683000      4.53716000
  O     -0.81092100      4.25874000      5.46382000
  C     -4.38367000     -0.49546500     -3.56706000
  O     -5.40308000     -0.61192800     -4.40435000
  C      5.50833000     -1.45672000      0.69026900
  O      6.66699000     -1.99468000      1.13327000
  C     -3.74493000      4.21487000     -1.78726000
  O     -4.89370000      4.79667000     -2.00153000
  C      5.64827000     -0.74750500     -1.05035000
  O      6.65866000     -1.50641000     -1.29667000
  C      5.17965000      0.33450600     -1.97552000
  O      6.01943000      0.53861800     -2.93204000
  C     -4.47473000     -4.08189000      1.20945000
  O     -4.81405000     -5.11883000      1.89330000
  C      1.49220000      2.79255000      5.16501000
  O      1.91658000      3.29815000      6.25486000
  C     -3.44731000      4.51348000      2.37480000
  O     -3.90002000      5.37530000      3.20710000
  C     -5.53635000      1.46477000     -0.91078700
  O     -6.66406000      1.54012000     -1.55759000
  C     -0.26882200     -1.92490000     -5.31975000
  O      0.67810300     -2.42450000     -6.03626000
  C      3.10857000      0.27742800      5.39018000
  O      3.99714000      1.03355000      5.93683000
  C     -4.62777000      1.86627000      2.43815000
  O     -5.72566000      1.96219000      3.22287000
  C     -1.30410000      6.21091000     -1.31136000
  O     -2.18099000      7.14139000     -1.44037000
  C     -5.23285000     -0.83294400      1.63612000
  O     -6.51577000     -0.82650800      1.90275000
  C     -4.63772000     -3.73233000     -0.16941900
  O     -5.33789000     -4.35953000     -1.04975000
  C      2.51089000     -1.16374000     -5.07653000
  O      2.83408000     -1.17025000     -6.32438000
  C      4.12166000     -0.59137800      4.26217000
  O      5.24871000     -0.77932300      4.84769000
  C     -1.46044000     -5.37076000     -1.35749000
  O     -2.40260000     -5.99297000     -1.98847000
  C     -5.65123000      1.58200000      0.54291000
  O     -6.79799000      1.69892000      1.10327000
  C     -2.35196000      2.53985000      4.79381000
  O     -2.95436000      2.23084000      5.88499000
  C     -0.85281500     -6.07219000     -0.20872400
  O     -1.03432000     -7.24424000      0.30047700
  C     -0.60401100      5.53577000     -2.34733000
  O     -0.31115700      5.79626000     -3.57192000
  C      1.32405000     -5.83856000      1.70863000
  O      2.25535000     -6.72324000      1.74535000
  C     -1.80006000     -2.51104000     -5.30631000
  O     -2.34237000     -3.49719000     -5.93192000
  C      3.57384000      4.29252000     -1.05785000
  O      4.49075000      5.20148000     -1.03350000
  C      1.55572000      0.41269900      6.06394000
  O      1.88857000      0.61743800      7.29328000
  C      4.07373000      2.91767000     -3.42080000
  O      5.19338000      3.31445000     -3.91700000
  C      0.41653000     -5.30784000      2.71131000
  O      0.28388600     -5.87568000      3.86411000
  C      4.70371000      1.85056000      3.18420000
  O      5.81527000      1.97676000      3.80778000

