110
Energy = -12218.57725296 au
 Ni      0.28034900     -3.54199000     -2.54121000
 Ni     -1.40949000     -0.22740200     -1.18033000
 Ni      0.56376100     -4.37374000      0.37084400
 Ni     -0.58378700      4.12144000     -0.33974100
 Ni     -1.17045000      2.39486000     -2.11740000
 Ni     -3.39574000      0.48290900      0.82478900
 Ni     -1.05715000     -0.93559900      1.37887000
 Ni      0.05925960      3.75566000      2.32205000
 Ni      0.42098800     -0.94651100     -3.17251000
 Ni      3.24836000     -0.53028200     -0.98461700
 Ni      0.76434800     -1.69296000     -0.58093400
 Ni      2.65715000     -2.34156000     -2.60384000
 Ni      3.46863000      2.02086000     -1.80664000
 Ni      1.66491000     -0.40518100      3.68199000
 Ni      1.32768000      0.20220100      1.13038000
 Ni      2.80246000      0.18719700     -3.45344000
 Ni      1.28947000      3.45415000     -2.64396000
 Ni     -2.19460000     -2.29797000     -2.86217000
 Ni      3.43365000     -1.17112000      1.74618000
 Ni     -1.64148000     -2.81466000     -0.37011300
 Ni      3.67927000      1.32981000      0.95350900
 Ni      0.99130300      0.91838300     -1.42808000
 Ni     -1.91440000      0.31125100     -3.67148000
 Ni     -3.82676000     -1.32303000     -0.92592600
 Ni      2.02675000      2.22731000      2.84406000
 Ni     -0.42966900      0.93116600      3.22037000
 Ni      2.79783000     -3.17332000      0.13464400
 Ni     -1.13273000     -3.52082000      2.46878000
 Ni     -3.10816000      3.18824000     -0.33383500
 Ni      1.59483000      2.77532000      0.34771800
 Ni     -2.52167000      2.29019000      2.47866000
 Ni     -2.87089000     -0.14925000      3.53301000
 Ni      0.76206100      1.54655000     -4.29687000
 Ni     -0.80236700      1.63653000      0.53383200
 Ni     -3.72407000     -2.17599000      1.74216000
 Ni     -0.75565500     -1.47884000      4.10580000
 Ni     -3.60851000      1.28144000     -2.05617000
 Ni      1.11048000     -2.40683000      2.00869000
  C      3.79048000      2.03573000     -4.66564000
  O      4.85158000      1.91237000     -5.38982000
  C      2.31687000      2.20941000     -5.22674000
  O      2.38951000      2.73932000     -6.41080000
  C     -1.33611000      5.52883000      2.72234000
  O     -1.42592000      6.59082000      3.44360000
  C     -5.22460000      0.61870600      1.98668000
  O     -5.97923000      1.21467000      2.83014000
  C     -5.16013000     -1.80515000      3.00927000
  O     -6.41116000     -1.54973000      3.08728000
  C      3.32173000     -2.98639000     -4.62545000
  O      4.02105000     -3.50004000     -5.57327000
  C      0.17283700     -4.63327000      3.38384000
  O     -0.13583100     -5.26321000      4.47253000
  C     -0.07243830      4.14411000     -3.94912000
  O      0.15849400      4.71230000     -5.09553000
  C      4.89514000     -1.42523000     -2.40880000
  O      5.84392000     -2.26233000     -2.63578000
  C      2.03349000      4.67595000      2.41242000
  O      2.52278000      5.82533000      2.68757000
  C      2.50591000     -5.39393000     -1.38159000
  O      3.24431000     -5.93909000     -2.27349000
  C      3.03430000     -4.50180000      1.86002000
  O      4.08840000     -5.26510000      2.16686000
  C     -3.06202000     -1.96551000      5.01003000
  O     -3.47572000     -1.71740000      6.21072000
  C      1.89985000     -3.06641000     -5.03459000
  O      1.44069000     -2.73234000     -6.18698000
  C     -3.02286000     -4.47057000     -2.22481000
  O     -3.33053000     -5.56861000     -1.62905000
  C      4.19059000      3.11789000     -3.48430000
  O      5.41065000      3.54848000     -3.42073000
  C      1.91048000     -0.29565500     -5.48638000
  O      2.60144000     -0.81381500     -6.44011000
  C      5.15516000      0.07070410     -2.36158000
  O      6.32093000      0.56907500     -2.55173000
  C     -4.04368000     -2.75791000      3.82818000
  O     -5.02495000     -3.58288000      4.13061000
  C     -4.88549000      3.09009000      1.07044000
  O     -6.10538000      3.42198000      1.02353000
  C      1.33371000     -6.24220000      0.90734200
  O      1.30981000     -7.13620000      1.82147000
  C     -2.38948000     -3.36786000      4.48149000
  O     -2.30931000     -4.38421000      5.26085000
  C     -2.81905000      4.59132000     -1.97019000
  O     -3.09745000      5.84298000     -1.92060000
  C      1.65795000     -4.83373000      3.01947000
  O      2.27867000     -5.68639000      3.77649000
  C     -4.42141000     -0.31116800     -3.77641000
  O     -5.38353000     -0.38050500     -4.60802000
  C      0.64229600      0.43910900     -5.84756000
  O      0.14831200      0.56086400     -7.02542000
  C     -1.40517000      4.61486000     -3.38069000
  O     -2.12075000      5.32734000     -4.16691000
  C      1.77532000     -6.38672000     -0.57460200
  O      1.47620000     -7.65121000     -0.80823300
  C     -3.69138000      3.45682000     -2.64101000
  O     -4.46039000      3.89784000     -3.57323000
  C     -0.39042700      0.07799420      5.46239000
  O     -0.59415400      0.36464500      6.72709000
  C     -4.48059000     -3.78467000      0.39383400
  O     -5.17546000     -4.82640000      0.60798500
  C     -5.57498000     -0.27052300      0.86397800
  O     -6.75750000     -0.61882100      0.51284800
  C      2.91856000      4.01460000     -3.50208000
  O      3.02111000      4.64890000     -4.61675000
  C     -3.35309000     -4.07760000     -3.52065000
  O     -4.04729000     -4.70834000     -4.40293000
  C     -2.70770000      1.44115000      4.88217000
  O     -2.89864000      1.66254000      6.14075000
  C      0.95641900     -4.01906000     -4.25176000
  O      0.88468700     -4.98328000     -5.12182000
