110
Energy = -10012.83877171 au
 Ni      0.07410650     -3.46441000     -2.23016000
 Ni     -1.36603000     -0.22831700     -1.15868000
 Ni      0.47608000     -4.16828000      0.22484800
 Ni     -0.47261700      4.16692000     -0.21728300
 Ni     -1.13300000      2.22938000     -1.89874000
 Ni     -3.02270000      0.49265000      0.65388200
 Ni     -0.94592400     -0.86089300      1.28458000
 Ni     -0.07376350      3.46750000      2.23875000
 Ni      0.29293600     -0.95485400     -2.97458000
 Ni      3.02239000     -0.49307400     -0.65282800
 Ni      0.71346500     -1.60800000     -0.53127500
 Ni      2.40427000     -2.32052000     -2.37699000
 Ni      3.28090000      1.98626000     -1.42409000
 Ni      1.81017000     -0.40499400      3.63963000
 Ni      1.36609000      0.22862400      1.15882000
 Ni      2.63140000      0.15820400     -3.14170000
 Ni      1.17964000      3.36822000     -2.04568000
 Ni     -2.03514000     -2.06851000     -2.88389000
 Ni      3.49001000     -1.13702000      1.80539000
 Ni     -1.58871000     -2.69482000     -0.40902900
 Ni      3.71256000      1.34209000      1.05595000
 Ni      0.94591600      0.86143800     -1.28457000
 Ni     -1.81256000      0.40739300     -3.64064000
 Ni     -3.71294000     -1.33853000     -1.05362000
 Ni      2.04002000      2.07657000      2.88707000
 Ni     -0.29675300      0.96038500      2.98487000
 Ni      2.80705000     -2.99127000      0.09883650
 Ni     -1.17385000     -3.36203000      2.04872000
 Ni     -2.80380000      2.98619000     -0.08823670
 Ni      1.59081000      2.69761000      0.40995700
 Ni     -2.40238000      2.32174000      2.39075000
 Ni     -2.63361000     -0.15194200      3.14395000
 Ni      0.52965600      1.52160000     -3.76391000
 Ni     -0.71321900      1.60817000      0.53195000
 Ni     -3.28358000     -1.98154000      1.42435000
 Ni     -0.52443100     -1.51316000      3.76379000
 Ni     -3.48923000      1.13427000     -1.80559000
 Ni      1.13880000     -2.23730000      1.90198000
  C      1.33013000     -4.28037000      3.62844000
  O      1.76814000     -5.16484000      4.44421000
  C      1.14812000      6.13670000     -0.38572300
  O      1.78804000      7.24572000     -0.22338900
  C      2.87588000      4.72778000      1.61423000
  O      3.52134000      5.83573000      1.78775000
  C     -1.97814000      5.99616000      0.76278000
  O     -2.50389000      7.10681000      1.14203000
  C      0.84548700      5.95152000      1.76725000
  O      1.50506000      7.03407000      1.98368000
  C     -2.36137000     -5.22323000     -0.62564100
  O     -3.07531000     -6.26863000     -0.79772000
  C      2.17431000      4.78191000      3.61641000
  O      2.82673000      5.91020000      3.82140000
  C     -0.34398100      3.42992000      4.85099000
  O     -0.42762700      3.84792000      6.05908000
  C      3.98482000      3.81486000      3.01568000
  O      4.67707000      4.85043000      3.23597000
  C     -5.50258000     -1.02014000      2.40673000
  O     -6.74792000     -0.83669100      2.66863000
  C     -2.33775000     -4.85109000     -2.80604000
  O     -2.99092000     -5.93723000     -3.01917000
  C      1.59940000     -0.30050100     -5.71310000
  O      1.71700000     -0.67746000     -6.93675000
  C      5.84732000     -1.31652000      0.89527900
  O      7.09163000     -1.51601000      0.63931800
  C      1.61201000     -5.87128000      1.70624000
  O      2.06749000     -6.76888000      2.46899000
  C     -3.84931000      0.08357220     -5.06411000
  O     -4.81501000     -0.07841010     -5.89810000
  C     -0.63842700     -6.32214000     -0.44132400
  O     -1.25079000     -7.40568000     -0.63063800
  C      2.89744000      5.03690000     -0.37102200
  O      3.60489000      6.09419000     -0.25166300
  C     -0.88033700      3.06532000     -5.22516000
  O     -1.33575000      3.96297000     -6.02536000
  C     -1.80975000      1.98253000      5.15317000
  O     -1.91585000      2.38031000      6.39943000
  C      0.07124530      4.89709000     -3.71217000
  O     -0.37110200      5.80447000     -4.50911000
  C      2.57462000      4.48530000     -3.79213000
  O      3.22779000      5.10636000     -4.71003000
  C      1.23796000      1.65351000      5.56492000
  O      1.13698000      2.03020000      6.78184000
  C      1.70066000     -6.17481000     -0.63256000
  O      2.23546000     -7.28202000     -1.01460000
  C     -0.48639000      0.56390600      5.72307000
  O     -0.62875400      0.94368700      6.96969000
  C     -1.06710000     -1.13457000     -5.70547000
  O     -0.95532100     -1.51105000     -6.92979000
  C     -1.45415000      5.89602000     -1.72696000
  O     -1.94408000      6.80346000     -2.49659000
  C     -5.88762000      1.18472000     -0.98762800
  O     -7.13101000      1.38693000     -0.72932700
  C      0.54829700     -0.99942600      6.32686000
  O      0.46351200     -0.66431600      7.56292000
  C     -2.82478000      3.57589000      4.57150000
  O     -2.97359000      4.00391000      5.77135000
  C     -0.27509600     -6.63875000      1.88399000
  O      0.13628400     -7.54085000      2.69569000
  C      2.14386000      3.48364000      5.07570000
  O      2.03939000      3.86139000      6.29379000
  C     -3.15309000      0.53635100      5.50106000
  O     -3.30037000      0.87637700      6.72150000
  C      4.77087000     -3.97277000      1.83146000
  O      5.31027000     -4.85829000      2.58802000
  C      2.89339000     -4.49935000      2.42433000
  O      3.41951000     -5.40239000      3.21577000
  C      2.49637000      2.37507000     -5.26000000
  O      3.15468000      2.99119000     -6.17660000
  C      4.36947000      3.09025000     -3.40485000
  O      5.05164000      3.70377000     -4.30597000
