#B3LYP/6-31+G(d) OPT FREQ

110, Energy = -10051.05933693 au

0 1
 Ni      0.07999630     -3.46626000     -2.24170000
 Ni     -1.36617000     -0.22857300     -1.15889000
 Ni      0.48480800     -4.15328000      0.22505800
 Ni     -0.47998600      4.15865000     -0.21970900
 Ni     -1.13331000      2.23009000     -1.89949000
 Ni     -3.03041000      0.49249500      0.65301100
 Ni     -0.94584800     -0.86106900      1.28478000
 Ni     -0.08103420      3.46134000      2.24256000
 Ni      0.29442900     -0.96105900     -2.98387000
 Ni      3.02812000     -0.49087100     -0.65465000
 Ni      0.71370000     -1.60793000     -0.53187900
 Ni      2.40304000     -2.33005000     -2.38304000
 Ni      3.28718000      1.98273000     -1.42948000
 Ni      1.81195000     -0.40347900      3.64214000
 Ni      1.36614000      0.22825400      1.15874000
 Ni      2.63634000      0.15628700     -3.13946000
 Ni      1.18127000      3.36555000     -2.05013000
 Ni     -2.03341000     -2.07202000     -2.89353000
 Ni      3.48776000     -1.14333000      1.81201000
 Ni     -1.58986000     -2.69098000     -0.40962900
 Ni      3.71742000      1.33717000      1.04955000
 Ni      0.94610600      0.86100200     -1.28467000
 Ni     -1.81389000      0.40351100     -3.64231000
 Ni     -3.71751000     -1.33916000     -1.04923000
 Ni      2.03052000      2.06584000      2.89039000
 Ni     -0.29372900      0.96025400      2.98243000
 Ni      2.81061000     -2.99789000      0.09465060
 Ni     -1.17212000     -3.36582000      2.05551000
 Ni     -2.80512000      2.98983000     -0.08625500
 Ni      1.58553000      2.69001000      0.40634800
 Ni     -2.40379000      2.32454000      2.38636000
 Ni     -2.63293000     -0.15735700      3.14062000
 Ni      0.52546400      1.51714000     -3.76221000
 Ni     -0.71360300      1.60792000      0.53188300
 Ni     -3.28396000     -1.98513000      1.42084000
 Ni     -0.52787100     -1.52312000      3.76568000
 Ni     -3.49621000      1.13348000     -1.80253000
 Ni      1.13975000     -2.24021000      1.90696000
  C      1.64436000     -4.17096000     -4.52880000
  O      1.77491000     -4.61846000     -5.72816000
  C      1.29230000      2.05221000      5.45117000
  O      1.19961000      2.43803000      6.65583000
  C     -2.78057000     -4.65832000     -2.34867000
  O     -3.45269000     -5.73933000     -2.53738000
  C     -1.14742000     -2.98292000      5.83785000
  O     -1.80494000     -3.59774000      6.75573000
  C     -5.73634000     -0.20859400      0.72683200
  O     -6.97164000     -0.05885260      1.03991000
  C      1.74632000     -5.34351000     -2.93073000
  O      2.23152000     -6.46121000     -3.38805000
  C      5.43450000      0.66153000     -2.60280000
  O      6.65886000      0.51601300     -2.93312000
  C      3.59551000      4.08991000     -3.29839000
  O      4.25896000      4.71355000     -4.20692000
  C     -2.84178000      2.49490000      4.91048000
  O     -3.02821000      2.86275000      6.12681000
  C      3.39196000     -4.89347000     -1.96931000
  O      3.96343000     -5.98203000     -2.33199000
  C     -0.97057900     -2.64456000     -5.22266000
  O     -0.86254600     -3.04850000     -6.45806000
  C     -4.09354000     -4.22173000     -0.01694280
  O     -4.77068000     -5.30437000     -0.17677200
  C     -0.49995000     -0.73135800     -5.78412000
  O     -0.39393000     -1.08078000     -7.00645000
  C     -0.69792000     -4.52635000     -4.59928000
  O     -0.56629700     -4.97002000     -5.79916000
  C      3.65510000     -3.31783000      3.28756000
  O      4.16842000     -4.16947000      4.10229000
  C     -1.04119000      1.79240000      5.28928000
  O     -1.12123000      2.19479000      6.53244000
  C      4.00865000     -4.59564000      1.52855000
  O      4.58388000     -5.55735000      2.31856000
  C      0.09376850      3.55950000      4.84516000
  O      0.00079689      3.99121000      6.06278000
  C      2.08876000      5.53125000     -0.36397400
  O      2.76132000      6.61993000     -0.22690500
  C     -0.09818440     -5.31880000      3.25896000
  O      0.30840600     -6.24404000      4.03033000
  C      5.78545000      0.44317200     -0.67341800
  O      7.03406000      0.24825400     -0.89187000
  C      4.99832000      2.35405000     -3.51092000
  O      5.67885000      2.96598000     -4.41984000
  C     -3.02746000     -2.34759000      4.88941000
  O     -3.70667000     -2.95480000      5.79742000
  C     -0.42154700     -0.02807150      5.93243000
  O     -0.56534800      0.30346900      7.15930000
  C      1.59610000      0.16185400      6.06427000
  O      1.52757000      0.50356500      7.29494000
  C     -1.79043000      4.12864000      4.49093000
  O     -1.92995000      4.56688000      5.68612000
  C     -5.82781000      1.14873000     -0.67376300
  O     -7.06245000      1.39280000     -0.46671100
  C     -0.47826000      3.79779000     -4.63431000
  O     -0.92777000      4.69398000     -5.44073000
  C     -2.62283000     -1.56029000     -5.71783000
  O     -2.53042000     -1.93006000     -6.94366000
  C     -1.69747000      5.68383000     -1.81372000
  O     -2.18614000      6.59054000     -2.58431000
  C     -2.82407000      5.38388000      1.33382000
  O     -3.36104000      6.48872000      1.71663000
  C      1.10865000     -2.34885000     -5.10661000
  O      1.22475000     -2.74191000     -6.35441000
  C      1.00267000     -3.94764000      4.16508000
  O      1.49386000     -4.79508000      4.99906000
  C      2.33090000     -4.66335000      2.58372000
  O      2.74928000     -5.59030000      3.36712000
  C     -3.95111000     -0.06438850     -4.91343000
  O     -4.92581000     -0.20758300     -5.73476000
  C      1.60287000     -0.49877800     -5.65396000
  O      1.75219000     -0.83147000     -6.88298000

