#B3LYP/6-31+G(d) OPT FREQ

110, Energy = -12161.97429901 au

0 1
 Ni      0.09066250     -3.92351000     -2.20294000
 Ni     -1.40358000     -0.21849400     -1.22262000
 Ni      0.55706300     -4.69705000      0.18879000
 Ni     -0.69314300      4.37363000     -0.14339900
 Ni     -1.38960000      2.42451000     -1.99445000
 Ni     -3.24511000      0.69261100      0.67836400
 Ni     -0.91911200     -0.86166100      1.32560000
 Ni      0.05937830      3.67786000      2.43552000
 Ni      0.27815600     -1.15580000     -3.27329000
 Ni      3.22544000     -0.63163800     -0.69282400
 Ni      0.81049600     -1.72173000     -0.57822100
 Ni      2.75824000     -2.60463000     -2.46398000
 Ni      3.36950000      1.96016000     -1.43321000
 Ni      1.97220000     -0.35448000      3.71166000
 Ni      1.40103000      0.18992000      1.20213000
 Ni      2.76648000      0.12138600     -3.45361000
 Ni      1.13378000      3.34024000     -2.01031000
 Ni     -2.27632000     -2.13015000     -3.04057000
 Ni      3.67627000     -1.47017000      1.85348000
 Ni     -1.53023000     -2.73278000     -0.44377300
 Ni      3.69891000      1.25901000      1.10370000
 Ni      0.96616500      0.81434400     -1.32201000
 Ni     -1.99477000      0.32278400     -3.79173000
 Ni     -3.85710000     -1.31202000     -1.31320000
 Ni      2.17704000      2.34747000      2.94018000
 Ni     -0.36500500      1.09800000      3.24218000
 Ni      3.07143000     -3.24797000      0.13842600
 Ni     -0.90045300     -3.47311000      2.19784000
 Ni     -2.95955000      3.19640000     -0.12134100
 Ni      1.55081000      2.72570000      0.44636400
 Ni     -2.57142000      2.75032000      2.51949000
 Ni     -2.61449000     -0.01634650      3.32006000
 Ni      0.63718900      1.52199000     -3.83751000
 Ni     -0.77894400      1.68511000      0.57129600
 Ni     -3.22783000     -1.95415000      1.40501000
 Ni     -0.46701700     -1.48187000      3.94060000
 Ni     -3.67118000      1.20461000     -1.85643000
 Ni      1.29588000     -2.44509000      1.96737000
  C      1.06978000     -4.94780000      2.74030000
  O      1.79214000     -5.97809000      2.98663000
  C      2.84065000      1.92987000     -4.94803000
  O      3.53793000      2.48083000     -5.85817000
  C      5.50357000     -1.61798000     -0.91983300
  O      6.67562000     -1.63111000     -1.45543000
  C     -2.77454000      5.60025000      1.32492000
  O     -3.73939000      6.46224000      1.20482000
  C     -2.84820000      3.78459000     -3.00279000
  O     -3.36728000      4.11398000     -4.12778000
  C      1.70924000      5.12620000      2.31915000
  O      1.89945000      6.37006000      2.04621000
  C      5.55207000      1.24773000     -2.05732000
  O      6.81371000      1.48571000     -2.16600000
  C      2.44289000     -5.74901000     -1.59886000
  O      3.52815000     -6.35398000     -1.92552000
  C      4.77690000     -4.06755000     -1.57944000
  O      6.02006000     -4.33175000     -1.46659000
  C     -4.79226000      2.36062000      1.61151000
  O     -5.99849000      2.63965000      2.08045000
  C     -2.93986000      4.62465000      2.50775000
  O     -3.54948000      5.27449000      3.43865000
  C      4.77086000     -1.72191000     -2.76302000
  O      5.72605000     -2.21542000     -3.57738000
  C      0.18550300     -2.45401000     -5.11417000
  O      0.59771200     -3.38852000     -5.88757000
  C      2.75397000      4.35357000      2.98088000
  O      3.78002000      4.98206000      3.44778000
  C     -1.56471000      6.06554000      0.55260300
  O     -1.49469000      7.34148000      0.46324300
  C      5.39544000     -1.88631000      0.55630100
  O      6.56669000     -2.15860000      1.03190000
  C      2.45118000     -1.21440000     -5.13797000
  O      2.68924000     -1.30250000     -6.38794000
  C     -2.78708000      4.77157000     -1.89631000
  O     -3.10079000      5.99094000     -2.14867000
  C      1.24329000     -5.54113000     -2.49282000
  O      1.08103000     -6.73033000     -2.95291000
  C     -5.06585000     -1.70698000     -3.00985000
  O     -6.15900000     -1.36101000     -3.58730000
  C     -2.28210000      1.21816000      5.10517000
  O     -2.56928000      1.36341000      6.33869000
  C      3.61684000     -4.01855000      2.18478000
  O      4.15367000     -5.16439000      2.42097000
  C     -0.14097400     -0.07833080      5.69585000
  O     -0.40771500      0.06481540      6.93349000
  C     -5.37864000      1.62511000     -0.31235100
  O     -6.68854000      1.71546000     -0.32729200
  C      4.02889000     -4.14462000     -2.81782000
  O      4.33947000     -4.96233000     -3.75971000
  C     -3.87893000     -0.83596300     -4.99726000
  O     -4.24255000     -1.27356000     -6.16296000
  C      0.33815800     -4.32811000      3.88393000
  O      0.43235400     -4.79620000      5.07194000
  C      4.22370000      0.50808100      4.09999000
  O      5.10475000      0.58993000      5.03649000
  C      2.00159000     -5.92851000     -0.15725600
  O      2.18092000     -7.19328000     -0.00759766
  C      3.41925000     -3.13390000      3.39084000
  O      3.65865000     -3.53637000      4.58374000
  C     -4.18896000      0.59113800     -4.56802000
  O     -5.21233000      1.14651000     -5.09620000
  C     -1.26049000     -5.55836000     -1.69500000
  O     -2.09941000     -6.25246000     -2.38570000
  C     -1.02434000      3.34111000      4.45785000
  O     -1.07611000      3.85913000      5.65282000
  C     -0.87298500     -6.02931000     -0.37663100
  O     -1.30180000     -7.14261000      0.11278900
  C     -0.48113000     -1.26004000     -5.52778000
  O     -0.70000900     -0.96788400     -6.75709000
  C     -4.19554000     -2.27879000     -4.11458000
  O     -4.58805000     -3.26883000     -4.84483000

