110
Energy = -11565.92798149 au
 Ni      0.19269100     -3.59660000     -2.24582000
 Ni     -1.41372000     -0.17416300     -1.21058000
 Ni      0.47967400     -4.28643000      0.13608100
 Ni     -0.62450400      4.40091000     -0.38757900
 Ni     -1.26450000      2.48030000     -2.06362000
 Ni     -3.12068000      0.53083400      0.63528300
 Ni     -0.95890900     -0.84284000      1.32231000
 Ni      0.02224060      3.49135000      2.44416000
 Ni      0.31880200     -0.96030500     -3.06335000
 Ni      3.35800000     -0.54415400     -0.71157900
 Ni      0.78517600     -1.62194000     -0.55219500
 Ni      2.54848000     -2.35412000     -2.59441000
 Ni      3.55766000      1.91098000     -1.49096000
 Ni      1.88552000     -0.43614200      3.66486000
 Ni      1.42785000      0.24368000      1.17815000
 Ni      2.94347000     -0.00594320     -3.33777000
 Ni      1.05414000      3.59536000     -2.17130000
 Ni     -2.01556000     -2.07992000     -3.00119000
 Ni      3.81323000     -1.15523000      1.79059000
 Ni     -1.60655000     -2.73705000     -0.41053300
 Ni      3.84501000      1.27110000      1.17374000
 Ni      1.00337000      0.91793800     -1.35062000
 Ni     -1.86506000      0.63716800     -3.72320000
 Ni     -3.80077000     -1.25490000     -1.02565000
 Ni      2.01979000      2.19464000      3.12765000
 Ni     -0.28899700      1.00051000      3.24166000
 Ni      3.07696000     -2.96162000      0.05167920
 Ni     -1.21096000     -3.32049000      2.15039000
 Ni     -2.96844000      3.30621000     -0.22197700
 Ni      1.68311000      2.82953000      0.41895200
 Ni     -2.40670000      2.36800000      2.31081000
 Ni     -2.57791000     -0.11419100      3.31040000
 Ni      0.41143200      1.67664000     -3.88460000
 Ni     -0.72927800      1.68617000      0.49841900
 Ni     -3.40844000     -1.91017000      1.43732000
 Ni     -0.70400800     -1.61730000      3.92371000
 Ni     -3.74968000      1.30952000     -1.87067000
 Ni      1.23428000     -2.32089000      1.95892000
  C     -1.49616000      0.55171100      5.35592000
  O     -1.66181000      0.94364300      6.43936000
  C     -2.84480000      5.19612000      1.18797000
  O     -3.50245000      6.26705000      1.40172000
  C      3.60403000      0.13411000      5.25853000
  O      4.55014000     -0.09007690      6.10369000
  C     -6.04958000      0.51964700     -1.66139000
  O     -7.15850000      0.93390900     -2.12437000
  C      2.62072000      4.49861000      3.00118000
  O      3.48576000      5.36722000      3.35470000
  C      2.60008000     -2.09934000     -4.87641000
  O      2.76833000     -2.66792000     -5.92842000
  C     -3.50409000     -2.76310000      4.31978000
  O     -4.68437000     -2.98296000      4.73509000
  C     -2.22137000     -3.17780000      4.78475000
  O     -2.20321000     -4.01023000      5.76548000
  C     -0.05742530      5.14744000     -3.23126000
  O     -0.65129000      6.27921000     -3.36268000
  C      0.49052200      4.42030000     -4.34386000
  O      0.50832100      4.89157000     -5.53582000
  C      4.97786000      0.74672100      3.26425000
  O      6.01972000      0.84441500      3.97490000
  C     -5.43676000      3.00652000     -0.97062600
  O     -6.68231000      3.14466000     -0.71156200
  C      0.67138900      6.38705000     -1.11016000
  O      1.44388000      7.36457000     -0.82594400
  C     -2.54412000      4.72633000     -2.03612000
  O     -2.76274000      5.89377000     -2.55452000
  C      2.39978000      5.08877000      0.14129500
  O      3.21571000      6.01551000      0.50877700
  C      1.93260000     -5.31086000     -1.98365000
  O      2.32239000     -6.42919000     -2.46876000
  C      5.58065000      0.00207777     -2.26606000
  O      6.76137000     -0.47986200     -2.29100000
  C      0.96972300      2.37643000      5.17717000
  O      1.07288000      2.15021000      6.43452000
  C     -1.84150000      3.35997000     -4.51900000
  O     -2.05799000      4.59351000     -4.73005000
  C     -1.46981000     -5.57515000     -0.46235200
  O     -1.91213000     -6.77418000     -0.54043300
  C     -1.20795000      2.38641000     -5.48064000
  O     -1.57600000      2.87104000     -6.63422000
  C     -6.03205000      0.15336300     -0.21051400
  O     -6.92844000      0.72809200      0.54086500
  C     -3.64835000      3.91115000     -2.76301000
  O     -4.75612000      4.46329000     -2.97571000
  C      5.22046000     -2.65158000      0.03489610
  O      6.31460000     -3.33169000     -0.14923100
  C     -3.27174000      2.85163000     -3.88030000
  O     -3.95818000      2.93483000     -4.95565000
  C      3.47812000      1.71143000     -4.84838000
  O      4.38891000      2.01312000     -5.70989000
  C      4.73269000     -1.05223000     -3.13744000
  O      5.57717000     -1.72412000     -3.84242000
  C     -5.64466000     -1.25949000      0.81142200
  O     -6.81327000     -1.57227000      1.41858000
  C     -1.35616000      6.72974000     -0.73250800
  O     -1.86914000      7.65857000     -1.45329000
  C      5.42986000      1.42905000     -1.93972000
  O      6.57868000      2.01751000     -2.05524000
  C      5.53107000     -1.77068000      3.39742000
  O      6.33165000     -1.96240000      4.37843000
  C      6.13785000     -1.57286000      2.13945000
  O      7.34294000     -1.75604000      1.72851000
  C      1.48525000     -3.81523000      3.83176000
  O      2.21647000     -4.72667000      4.37636000
  C      5.57442000     -1.09936000      0.24296400
  O      6.74392000     -0.63447700     -0.04178350
  C      0.40325600      3.62781000      4.71990000
  O      0.13974200      4.52993000      5.62509000
  C     -1.24445000     -2.14902000     -5.25101000
  O     -1.36838000     -2.77720000     -6.36669000
