110
Energy = -12025.81341111 au
 Ni      0.21340600     -3.70190000     -2.29198000
 Ni     -1.42890000     -0.22510800     -1.23010000
 Ni      0.53141300     -4.34494000      0.15945500
 Ni     -0.21458400      4.29836000     -0.21288800
 Ni     -1.19175000      2.48901000     -2.21341000
 Ni     -3.16398000      0.58306000      0.55369900
 Ni     -0.93062800     -0.85588500      1.29786000
 Ni      0.06333240      3.40576000      2.35748000
 Ni      0.42869600     -1.01180000     -3.10466000
 Ni      3.15516000     -0.48260700     -0.67702300
 Ni      0.79430200     -1.66636000     -0.58874600
 Ni      2.80308000     -2.34287000     -2.63900000
 Ni      3.73719000      2.04818000     -1.60541000
 Ni      2.07119000     -0.22007700      4.04367000
 Ni      1.48519000      0.24136800      1.23587000
 Ni      2.88065000      0.14158200     -3.36470000
 Ni      1.29125000      3.56254000     -2.54450000
 Ni     -2.09056000     -2.44009000     -3.01441000
 Ni      3.79201000     -1.28598000      1.73566000
 Ni     -1.70180000     -2.93680000     -0.50710000
 Ni      4.17420000      1.19797000      1.25189000
 Ni      1.02992000      0.91239100     -1.38246000
 Ni     -2.09021000      0.35409800     -3.71562000
 Ni     -4.05908000     -1.13107000     -1.00655000
 Ni      2.24482000      2.02585000      3.20217000
 Ni     -0.18316100      1.01994000      3.27186000
 Ni      2.94107000     -3.38833000     -0.00248264
 Ni     -1.33294000     -3.48009000      2.14559000
 Ni     -2.87623000      3.18996000     -0.39218800
 Ni      1.71821000      2.63015000      0.37912600
 Ni     -2.38046000      2.33283000      2.31553000
 Ni     -2.56147000     -0.14295000      3.19586000
 Ni      0.72057900      1.66587000     -3.91347000
 Ni     -0.72267000      1.65259000      0.48657400
 Ni     -3.26918000     -1.98274000      1.40714000
 Ni     -0.63842600     -1.55680000      4.01844000
 Ni     -3.90774000      1.37348000     -1.98796000
 Ni      1.22068000     -2.26424000      1.90658000
  C     -5.54556000      0.96125500     -0.48586300
  O     -6.56055000      1.70939000     -0.18542100
  C     -4.79205000      0.33346200     -3.63332000
  O     -5.89266000      0.43579100     -4.28404000
  C      3.72187000      0.31889400      4.77103000
  O      4.44782000     -0.00491430      5.77493000
  C      5.03526000      1.45210000      2.90475000
  O      6.29823000      1.41229000      3.25932000
  C      0.91261500      6.22168000     -0.32041800
  O      1.23952000      7.30884000     -0.92249000
  C      1.49501000     -6.11427000     -0.90901000
  O      1.33902000     -7.36412000     -0.71588900
  C      4.29466000      1.63608000      4.26653000
  O      4.67879000      2.53238000      5.08334000
  C      4.53064000     -4.06967000     -2.47185000
  O      5.76076000     -4.30424000     -2.75151000
  C     -1.09923000     -0.13920800      5.62426000
  O     -1.06133000     -0.11119000      6.90926000
  C     -1.70846000     -2.32823000     -5.30048000
  O     -1.72338000     -3.13019000     -6.30745000
  C      3.30943000     -4.31822000      2.04624000
  O      3.95986000     -5.34430000      2.44622000
  C      5.56671000     -1.40425000     -0.94098000
  O      6.83542000     -1.70042000     -1.01463000
  C      2.63288000      4.00328000     -3.78528000
  O      2.94110000      5.06924000     -4.41854000
  C     -3.10858000     -0.30385400     -5.69226000
  O     -4.27868000     -0.29272100     -6.22132000
  C      2.95824000     -5.34574000     -1.05366000
  O      4.06658000     -6.01122000     -0.98464900
  C     -2.52349000     -4.91547000      0.19979400
  O     -3.27105000     -5.85920000     -0.22950200
  C      5.57294000      0.90851600     -1.23758000
  O      6.75765000      1.39734000     -1.34382000
  C     -2.32552000     -4.46451000     -2.70717000
  O     -3.12792000     -5.39412000     -3.06458000
  C      1.84779000     -5.36604000     -2.33334000
  O      2.11419000     -6.03032000     -3.39823000
  C      5.92963000     -0.13403800      0.23560900
  O      6.94774000      0.47495100      0.65410400
  C     -5.81654000     -0.53190300     -0.34405800
  O     -6.94422000     -1.03713000      0.00179477
  C      1.43311000      1.09730000      5.48530000
  O      1.65573000      1.03617000      6.83937000
  C     -3.68344000      4.24630000     -1.89314000
  O     -4.04512000      5.44861000     -2.10759000
  C      4.99746000     -1.38260000     -2.42596000
  O      5.69897000     -2.08082000     -3.30595000
  C      4.55654000      3.03301000     -2.94463000
  O      5.55134000      3.84166000     -3.12829000
  C      5.28776000      0.21208000     -2.68124000
  O      6.07418000      0.36801800     -3.66462000
  C     -2.33854000     -3.43398000      4.22697000
  O     -2.96782000     -4.20199000      5.04499000
  C     -1.34759000      3.87734000     -3.72517000
  O     -2.21219000      4.60511000     -4.34038000
  C      2.24201000     -1.77799000     -4.75336000
  O      2.43773000     -2.23411000     -5.93155000
  C      2.58174000      1.91171000     -5.06737000
  O      2.77993000      2.09070000     -6.40724000
  C     -3.89491000      3.18600000     -2.93144000
  O     -4.28502000      3.52196000     -4.11679000
  C      5.60527000     -1.30685000      1.37396000
  O      6.66054000     -2.04092000      1.45214000
  C      1.32271000      5.77799000      0.92487400
  O      2.13143000      6.35146000      1.76177000
  C      0.54066800      2.41264000      4.92875000
  O      0.12465600      3.15472000      5.89123000
  C      3.74038000      2.93595000     -4.35590000
  O      4.65447000      3.00550000     -5.28586000
  C      0.07870080      4.18183000     -4.12752000
  O      0.25656600      5.06158000     -5.08187000
