#B3LYP/6-31+G(d) OPT FREQ

110, Energy = -12139.12004624 au

0 1
 Ni     -0.02368060     -3.52924000     -2.45109000
 Ni     -1.40354000     -0.30464300     -1.23204000
 Ni      0.38950400     -4.30785000     -0.03622950
 Ni     -0.50518600      4.19979000     -0.26088800
 Ni     -1.17877000      2.23262000     -2.01354000
 Ni     -3.07690000      0.48256200      0.65579500
 Ni     -0.95107900     -0.94035400      1.37910000
 Ni     -0.14543900      3.42488000      2.44411000
 Ni      0.33047900     -1.18427000     -3.23833000
 Ni      3.09918000     -0.57512800     -0.71344600
 Ni      0.72258500     -1.70824000     -0.55003200
 Ni      2.55325000     -2.32397000     -2.56984000
 Ni      3.34588000      2.09935000     -1.32207000
 Ni      1.75320000     -0.46600800      3.93886000
 Ni      1.40887000      0.18552200      1.22357000
 Ni      2.88324000     -0.01942250     -3.36184000
 Ni      1.10108000      3.35877000     -2.16764000
 Ni     -2.37096000     -2.40028000     -3.19480000
 Ni      3.64607000     -1.12023000      1.97018000
 Ni     -1.77419000     -2.93253000     -0.44260000
 Ni      3.83479000      1.45372000      1.23747000
 Ni      0.97790800      0.82359700     -1.34961000
 Ni     -2.15092000      0.24877900     -3.77120000
 Ni     -3.79719000     -1.33881000     -1.31951000
 Ni      2.26495000      1.94989000      2.99299000
 Ni     -0.36705800      0.91932400      3.26112000
 Ni      2.88973000     -3.38337000     -0.11455900
 Ni     -1.52050000     -3.64427000      2.20796000
 Ni     -2.84580000      2.93526000     -0.07810110
 Ni      1.69890000      2.77952000      0.44087800
 Ni     -2.39762000      2.43576000      2.78513000
 Ni     -2.84020000     -0.06442770      3.60393000
 Ni      0.50343200      1.50191000     -3.95970000
 Ni     -0.69794900      1.60506000      0.57271300
 Ni     -3.27811000     -2.03480000      1.55885000
 Ni     -0.39679200     -1.73016000      4.08769000
 Ni     -3.86259000      1.04394000     -2.03693000
 Ni      1.16598000     -2.50406000      2.16047000
  C      4.88330000     -1.98281000     -2.32271000
  O      5.99527000     -2.56736000     -2.06857000
  C     -3.44478000      4.53236000      2.79961000
  O     -3.91787000      5.42510000      3.59974000
  C     -2.81792000     -4.85774000      0.90148900
  O     -3.42209000     -5.95350000      1.18931000
  C     -3.95323000     -2.17248000     -4.20154000
  O     -4.42502000     -2.58187000     -5.32451000
  C     -2.56049000     -4.00982000      3.78753000
  O     -2.64213000     -5.12322000      4.44119000
  C      3.12502000     -5.11958000     -1.13113000
  O      4.17194000     -5.84396000     -1.37131000
  C      5.30714000     -1.26642000      3.32136000
  O      6.24575000     -1.87199000      3.95349000
  C     -4.99669000     -1.32039000     -3.45674000
  O     -6.23004000     -1.70723000     -3.41197000
  C     -1.22810000      0.19807700      5.97520000
  O     -1.65618000     -0.20552300      7.10391000
  C     -1.92214000     -5.23704000     -2.68542000
  O     -1.82662000     -6.42119000     -3.22754000
  C      0.32086900     -3.51974000      4.79321000
  O      0.23945300     -4.12502000      5.92712000
  C     -4.11242000     -1.30266000      4.56534000
  O     -4.38694000     -1.43940000      5.83597000
  C      4.44385000      1.50513000      3.59216000
  O      4.99287000      2.28804000      4.46109000
  C      1.79748000     -0.07560170     -5.41946000
  O      2.05908000     -0.45791000     -6.66086000
  C      1.28741000     -3.88163000      3.75939000
  O      2.17389000     -4.78038000      4.01160000
  C     -4.61854000      0.20541600     -3.70908000
  O     -5.37986000      0.51705400     -4.70276000
  C     -5.54825000      1.50681000     -0.55618000
  O     -6.80965000      1.66381000     -0.63972700
  C      1.49676000     -2.76702000     -4.71731000
  O      2.19600000     -3.02167000     -5.76722000
  C      3.96099000      3.86092000      0.19286500
  O      4.61436000      4.96737000      0.26348400
  C     -2.80673000     -0.18221300     -6.02798000
  O     -3.89751000     -0.29587800     -6.70662000
  C     -4.90724000     -0.21686500      3.79782000
  O     -6.03701000      0.37562600      3.70103000
  C      0.27346400      0.06167710      5.62891000
  O      0.77177700      0.28621200      6.80020000
  C     -0.47090700      3.68806000     -4.32688000
  O     -0.85199800      4.42989000     -5.28207000
  C      2.38166000     -2.12147000      5.21170000
  O      2.87953000     -2.94352000      5.98146000
  C     -1.35659000      3.37573000      4.40861000
  O     -1.55049000      3.86932000      5.61460000
  C      0.00385414     -2.94768000     -4.85476000
  O     -0.53632200     -3.35389000     -5.94680000
  C     -2.89602000     -4.19386000     -3.19740000
  O     -3.94768000     -4.77455000     -3.65280000
  C     -1.48136000     -5.52040000     -1.12914000
  O     -1.56031000     -6.70511000     -0.65183900
  C     -2.92192000     -4.92125000     -0.65168500
  O     -3.98701000     -5.28808000     -1.27509000
  C      5.42624000      0.29491600      3.40198000
  O      6.66510000      0.53896300      3.71905000
  C      3.45934000     -4.71256000      1.74206000
  O      4.30372000     -5.57248000      2.19870000
  C     -1.65933000      5.46462000     -1.95355000
  O     -1.88471000      6.61121000     -2.49790000
  C     -3.67675000     -3.05642000      4.07892000
  O     -4.70927000     -3.54133000      4.68883000
  C      4.82125000     -0.84121800     -3.25467000
  O      5.91794000     -0.56210700     -3.87447000
  C     -2.21286000      1.02022000      5.10286000
  O     -2.83987000      1.72122000      5.98740000
  C      1.87561000     -5.65405000     -1.60177000
  O      1.74496000     -6.75277000     -2.24670000

