#B3LYP/6-31+G(d) OPT FREQ

110, Energy = -12037.21482647 au

0 1
 Ni     -0.15628400     -3.66929000     -2.40648000
 Ni     -1.41061000     -0.22394300     -1.21659000
 Ni      0.52959800     -4.41482000     -0.11191900
 Ni     -0.40828700      4.52283000     -0.13421900
 Ni     -1.14260000      2.38672000     -2.00045000
 Ni     -3.23477000      0.46600900      0.76817700
 Ni     -1.01272000     -0.86953200      1.31599000
 Ni     -0.33973000      3.68628000      2.21616000
 Ni      0.34247100     -1.13518000     -3.42082000
 Ni      3.24480000     -0.53966100     -0.81972500
 Ni      0.73626100     -1.65849000     -0.63745200
 Ni      2.65312000     -2.35119000     -2.54136000
 Ni      3.57929000      2.14420000     -1.69226000
 Ni      1.85868000     -0.36170200      3.79603000
 Ni      1.39616000      0.24364800      1.14354000
 Ni      2.91451000      0.22523800     -3.57207000
 Ni      1.54777000      3.61756000     -2.01631000
 Ni     -1.98497000     -2.13100000     -2.99849000
 Ni      3.60323000     -1.09138000      1.73158000
 Ni     -1.65404000     -2.77815000     -0.42716100
 Ni      3.95281000      1.21399000      0.78892700
 Ni      1.03888000      0.88827200     -1.37346000
 Ni     -2.02180000      0.28069200     -3.81693000
 Ni     -3.94390000     -1.34375000     -1.25303000
 Ni      2.06641000      2.04242000      2.84186000
 Ni     -0.39341100      1.02827000      3.16384000
 Ni      2.83982000     -3.19988000     -0.05643830
 Ni     -1.37892000     -3.53398000      2.01680000
 Ni     -2.76514000      3.09484000     -0.17120900
 Ni      1.78721000      2.92701000      0.33501600
 Ni     -2.62333000      2.54971000      2.51987000
 Ni     -2.98917000     -0.08002820      3.16886000
 Ni      0.79102200      1.50322000     -3.92766000
 Ni     -0.72079700      1.66408000      0.56065700
 Ni     -3.42523000     -2.18470000      1.49601000
 Ni     -0.69774100     -1.43859000      3.85239000
 Ni     -3.67861000      1.09117000     -1.95345000
 Ni      1.10662000     -2.24817000      1.87319000
  C     -2.26261000      4.56605000     -2.20535000
  O     -2.76118000      5.35722000     -3.07658000
  C      4.55619000      3.01809000     -3.36898000
  O      5.82110000      3.23544000     -3.28107000
  C      1.77030000     -5.75643000     -1.47911000
  O      1.80240000     -6.68112000     -2.36528000
  C      4.01909000      0.36410800      4.51523000
  O      4.76921000      0.33437900      5.56382000
  C      2.14838000      5.68959000     -0.75883100
  O      2.57904000      6.55553000     -1.61003000
  C      1.89932000     -0.23331000     -5.38134000
  O      2.33068000     -0.49047200     -6.60192000
  C     -2.43508000      5.24905000      2.96858000
  O     -2.32131000      5.87885000      4.08990000
  C      2.16302000     -3.19644000     -4.61496000
  O      2.50514000     -3.43626000     -5.81001000
  C      4.02155000      2.07378000     -4.58031000
  O      5.09635000      1.97286000     -5.29991000
  C     -3.61815000      4.35687000      2.70024000
  O     -4.63571000      5.10130000      2.93170000
  C     -5.17325000      0.50480700      2.04813000
  O     -6.40121000      0.51116500      1.66781000
  C      0.89728100      5.91637000      0.09553880
  O      1.22353000      7.00603000      0.69502900
  C     -2.06207000      2.98369000      4.78290000
  O     -2.66688000      3.45359000      5.81853000
  C     -1.89190000     -5.09152000     -2.26954000
  O     -2.93283000     -5.63518000     -2.77693000
  C     -4.72611000     -0.80472100     -4.34088000
  O     -5.51796000     -1.62271000     -4.91309000
  C      5.73592000     -0.32844600      0.43251900
  O      6.79234000     -1.04020000      0.58823700
  C     -0.08115680     -1.86604000     -5.25337000
  O      0.13872100     -1.58308000     -6.48772000
  C     -0.15670500      0.60826500      5.46993000
  O     -0.38047900      1.20055000      6.57102000
  C      2.55201000      2.20117000     -5.06208000
  O      2.65764000      2.72399000     -6.24069000
  C     -1.78159000     -5.59630000      1.14082000
  O     -2.60699000     -6.55442000      1.22148000
  C      2.82726000     -5.53131000     -0.49848900
  O      3.74651000     -6.41496000     -0.34316100
  C     -3.63662000     -3.17707000      3.68062000
  O     -4.51965000     -4.13064000      4.14886000
  C     -1.02846000     -5.73713000     -1.27179000
  O     -1.21065000     -6.99137000     -1.00826000
  C      5.06237000     -0.02243980     -2.92939000
  O      6.16560000     -0.22092900     -3.58739000
  C     -3.87995000     -4.32879000      0.93153900
  O     -4.80563000     -5.15596000      0.95508300
  C      3.06248000      4.55152000     -0.15215400
  O      4.01348000      5.32739000      0.23490000
  C      3.42841000      4.07755000     -3.15011000
  O      3.66643000      4.83703000     -4.14986000
  C     -5.42463000      0.32309000     -3.18212000
  O     -6.28945000      1.06900000     -3.77926000
  C     -1.52971000      5.59696000      1.76166000
  O     -1.79205000      6.84480000      1.66688000
  C      5.77417000      0.86651000     -0.45507500
  O      6.79900000      1.23707000     -1.12904000
  C      4.80529000     -2.39467000     -1.67659000
  O      5.95661000     -2.60862000     -2.10181000
  C     -5.60343000     -0.99820100     -2.43399000
  O     -6.66089000     -1.69989000     -2.59816000
  C     -0.42619900     -3.23359000     -4.74656000
  O     -0.44869700     -4.14444000     -5.66361000
  C     -3.47296000     -0.31091400     -4.99254000
  O     -3.80287000     -0.38504400     -6.24774000
  C     -2.91327000     -2.28124000      4.80703000
  O     -3.32617000     -2.53736000      6.08951000
  C     -4.92798000      0.65481400      3.47616000
  O     -5.78930000      1.05582000      4.34363000

