110
Energy = -12583.24716278 au
 Ni      0.05971690     -3.39896000     -2.56364000
 Ni     -1.35443000     -0.29329600     -1.16304000
 Ni      0.51266300     -4.54285000      0.07846210
 Ni     -0.48382200      4.13761000     -0.06617750
 Ni     -1.24391000      2.51291000     -2.17887000
 Ni     -3.08648000      0.44962600      0.82729800
 Ni     -0.97312900     -0.96496800      1.41292000
 Ni     -0.11156500      3.84137000      2.64602000
 Ni      0.31333700     -1.00977000     -3.07241000
 Ni      3.45887000     -0.43761600     -0.75553800
 Ni      0.82769000     -1.74831000     -0.48425800
 Ni      2.81911000     -2.29122000     -2.49329000
 Ni      3.51915000      2.26119000     -1.71021000
 Ni      1.78259000     -0.61998400      3.66591000
 Ni      1.35671000      0.23810100      1.20684000
 Ni      3.01826000      0.08060640     -3.32286000
 Ni      1.34602000      3.62269000     -2.15108000
 Ni     -2.16191000     -2.21497000     -3.36214000
 Ni      3.41857000     -1.19693000      1.67008000
 Ni     -1.70747000     -3.06808000     -0.44294800
 Ni      3.63335000      1.54764000      0.88952300
 Ni      1.08139000      0.97204300     -1.30574000
 Ni     -2.15676000      0.28222900     -3.69983000
 Ni     -3.81848000     -1.37379000     -0.90528900
 Ni      1.84989000      2.27064000      2.95912000
 Ni     -0.28226300      0.90527700      3.14197000
 Ni      2.80384000     -3.35502000      0.27986100
 Ni     -1.26474000     -3.46121000      1.97230000
 Ni     -2.85729000      3.29559000     -0.15349800
 Ni      1.73754000      3.06771000      0.40075100
 Ni     -2.37646000      2.61191000      2.61401000
 Ni     -2.62593000     -0.31383300      3.57613000
 Ni      0.80754400      1.64992000     -3.79616000
 Ni     -0.72141900      1.69216000      0.63138600
 Ni     -3.71846000     -2.29261000      1.54730000
 Ni     -0.67956900     -1.64272000      4.03320000
 Ni     -3.49259000      1.12346000     -1.73975000
 Ni      1.13092000     -2.69591000      2.20348000
  C     -2.58859000      4.79705000      1.98590000
  O     -3.20698000      5.87461000      1.63190000
  C     -3.04570000     -2.00235000      4.32668000
  O     -3.89169000     -2.32105000      5.31258000
  C      2.13644000      4.38307000     -3.74520000
  O      2.81078000      5.43116000     -4.04876000
  C      2.15883000     -5.53452000     -0.97287000
  O      1.72391000     -6.74871000     -0.98111900
  C      0.87662500      5.64764000      2.62198000
  O      0.68460500      6.88618000      2.33232000
  C      1.66546000     -4.44744000      2.72233000
  O      1.42069000     -5.15180000      3.77638000
  C     -0.96558400     -5.78687000      0.06839490
  O     -0.92721600     -7.07482000      0.01530630
  C     -3.78161000     -1.82673000     -4.33478000
  O     -4.56799000     -2.68036000     -4.90281000
  C     -0.64224000     -3.13729000     -4.30398000
  O     -0.49057700     -3.68289000     -5.45992000
  C     -1.16580000      2.06992000      5.42102000
  O     -1.93377000      2.47898000      6.34131000
  C     -0.17923100      2.93416000      4.61836000
  O      0.33828500      3.70031000      5.51919000
  C      2.34691000      3.27256000     -4.77053000
  O      2.11357000      3.22221000     -6.04244000
  C     -3.23075000      4.19226000     -2.04041000
  O     -4.17682000      5.02677000     -2.32512000
  C     -5.23983000     -1.21671000      1.02331000
  O     -6.55514000     -1.20582000      1.31818000
  C     -3.94224000     -0.35624100     -4.41495000
  O     -5.01170000      0.16755100     -4.91104000
  C      5.51383000      0.10334500     -1.02982000
  O      6.38731000      0.69840400     -1.76171000
  C     -2.27338000      3.87610000     -3.11266000
  O     -2.15571000      4.35634000     -4.30208000
  C     -2.22826000     -5.00251000     -0.15150400
  O     -3.30885000     -5.70772000     -0.24156000
  C      3.67544000      2.52555000     -4.20807000
  O      4.69323000      3.54694000     -4.61581000
  C     -2.38089000      5.17225000      3.47960000
  O     -1.93667000      6.21712000      4.07333000
  C     -4.17652000     -4.36545000      1.87676000
  O     -4.18131000     -5.45739000      2.54808000
  C      2.79886000      4.75318000      0.51434400
  O      2.69445000      5.98429000      0.85336100
  C      3.97839000      3.96522000      0.03672110
  O      5.08374000      4.62819000      0.12924600
  C      4.36078000     -2.62712000     -4.13374000
  O      5.17055000     -3.22425000     -4.91829000
  C      2.83778000     -4.66980000      1.78105000
  O      3.76058000     -5.54025000      2.01635000
  C      4.82594000     -1.52886000     -3.24717000
  O      6.07926000     -1.33979000     -2.99956000
  C     -2.75909000      3.86778000      4.06120000
  O     -3.24720000      4.07581000      5.22699000
  C      5.56161000     -1.07545000     -0.21065200
  O      6.51024000     -1.84258000      0.17927100
  C      1.21760000     -2.50777000      4.64164000
  O      1.69121000     -3.34043000      5.61542000
  C      3.77717000      1.11851000     -4.72366000
  O      4.20300000      0.92765700     -5.92142000
  C      3.53672000     -5.31784000     -1.50621000
  O      4.26351000     -6.29442000     -1.96494000
  C      4.61148000     -4.03296000     -1.56485000
  O      5.92153000     -3.91166000     -1.85385000
  C      1.95292000      4.87481000      3.15127000
  O      3.04471000      5.23941000      3.71938000
  C      4.95264000      3.39927000     -3.23865000
  O      5.91386000      3.91001000     -2.54583000
  C     -1.28631000      0.52021000      5.12434000
  O     -1.19024000      0.06190520      6.33105000
  C     -4.71275000     -3.84354000      0.65972400
  O     -5.51351000     -4.13926000     -0.30476800
