#B3LYP/6-31+G(d) OPT FREQ

110, Energy = -12128.21111485 au

0 1
 Ni      0.27061900     -3.51370000     -2.39085000
 Ni     -1.42565000     -0.19706300     -1.12218000
 Ni      0.69445800     -4.62751000      0.33728000
 Ni     -0.43504100      4.52364000     -0.24999800
 Ni     -1.11697000      2.35609000     -2.03538000
 Ni     -3.33119000      0.57203100      0.70064200
 Ni     -1.02558000     -0.90307000      1.35020000
 Ni     -0.16289400      3.70576000      2.24692000
 Ni      0.49411300     -0.99291300     -3.19398000
 Ni      3.32899000     -0.45478800     -0.83621700
 Ni      0.82814400     -1.69093000     -0.52060400
 Ni      2.77137000     -2.32813000     -2.43520000
 Ni      3.55987000      1.99388000     -1.37625000
 Ni      2.05154000     -0.57712800      3.68143000
 Ni      1.45663000      0.20241500      1.18209000
 Ni      3.08260000      0.33287000     -3.55478000
 Ni      1.33580000      3.37107000     -1.98014000
 Ni     -2.03159000     -2.03904000     -2.83027000
 Ni      3.82478000     -1.18652000      1.78252000
 Ni     -1.59598000     -2.72753000     -0.29517000
 Ni      3.83054000      1.29760000      1.32490000
 Ni      1.02777000      0.86429000     -1.37722000
 Ni     -1.73332000      0.43870500     -3.61366000
 Ni     -4.09314000     -1.25978000     -1.01294000
 Ni      2.51405000      2.25431000      3.15305000
 Ni     -0.22942200      0.95955800      2.97647000
 Ni      2.86538000     -3.24198000      0.26273300
 Ni     -1.16370000     -3.72727000      2.43259000
 Ni     -2.80828000      2.97839000     -0.10725300
 Ni      1.75567000      2.86524000      0.50123700
 Ni     -2.59735000      2.29224000      2.58944000
 Ni     -2.97822000     -0.02946890      3.12009000
 Ni      0.86945500      1.81859000     -4.20305000
 Ni     -0.72864300      1.65976000      0.54445400
 Ni     -3.72453000     -2.05723000      1.57105000
 Ni     -0.54789000     -1.61656000      3.75938000
 Ni     -3.81168000      1.06153000     -1.87130000
 Ni      1.23019000     -2.34468000      2.01267000
  C      1.84946000     -5.64491000      1.40034000
  O      2.10301000     -6.89633000      1.55383000
  C     -1.73325000      5.33473000      2.28735000
  O     -1.89340000      6.40446000      2.96236000
  C     -5.43032000      1.06532000      1.55061000
  O     -6.53529000      1.67750000      1.28680000
  C     -4.59821000      1.34746000      2.90119000
  O     -5.46305000      1.76809000      3.76647000
  C      2.18086000     -4.48465000      3.42215000
  O      2.32906000     -5.64693000      3.96658000
  C      5.60657000     -2.25897000      0.70424700
  O      6.44334000     -3.14254000      0.30673600
  C     -5.56524000      2.03512000     -0.95561000
  O     -6.81689000      1.89283000     -1.11018000
  C      3.51861000      4.22469000     -0.67747200
  O      4.37630000      5.19402000     -0.55554300
  C      2.97165000     -4.73736000      1.99572000
  O      4.18134000     -4.95838000      2.38547000
  C      1.97747000     -3.25953000      4.16558000
  O      2.24732000     -3.33171000      5.41414000
  C     -2.63953000     -3.60065000      4.04661000
  O     -3.07105000     -4.57223000      4.75869000
  C      5.15220000     -0.93881500     -3.14990000
  O      5.96086000     -0.77875200     -4.12915000
  C      0.00389478     -5.78067000      2.57510000
  O      0.09149810     -7.04434000      2.79165000
  C     -4.07908000     -4.24140000      1.07035000
  O     -5.13860000     -4.96643000      1.04930000
  C     -1.09963000      3.42155000     -4.55797000
  O     -2.02738000      4.28916000     -4.72735000
  C      4.97723000      0.16874900     -1.96728000
  O      6.24333000      0.40929600     -1.85497000
  C      4.00493000      2.11926000      4.25240000
  O      4.28270000      2.62070000      5.40819000
  C     -1.77715000      5.22535000     -1.96184000
  O     -1.93439000      6.38524000     -2.47156000
  C     -1.74069000      3.49809000      4.70658000
  O     -1.23817000      4.27348000      5.59245000
  C     -2.57449000      2.40465000      4.98149000
  O     -2.92710000      2.03230000      6.15628000
  C     -5.34602000     -1.24756000      2.12229000
  O     -6.22196000     -1.08123000      3.04671000
  C      3.25690000      4.11256000      2.42119000
  O      3.90676000      5.00919000      3.06859000
  C     -0.08729610      3.18292000     -5.50425000
  O      0.13830300      3.72349000     -6.65248000
  C      5.86377000     -0.87199800      0.84327600
  O      6.96425000     -0.27445300      0.56255200
  C     -5.06617000     -0.74109100     -2.98716000
  O     -6.14271000     -1.05775000     -3.61941000
  C      2.47136000      2.55174000     -4.91076000
  O      2.63931000      3.58569000     -5.67328000
  C      4.88539000      1.39880000      3.32671000
  O      6.02010000      0.98163500      3.76757000
  C      2.10558000     -5.38534000     -1.25288000
  O      2.52667000     -6.59264000     -1.40707000
  C     -0.31787600     -4.83151000      3.67106000
  O     -0.20703000     -4.99460000      4.94242000
  C      4.57709000     -2.28934000     -2.73543000
  O      5.56506000     -3.10213000     -2.89349000
  C      0.52984400     -3.01588000     -4.56798000
  O      0.57040100     -3.58546000     -5.72208000
  C      4.25736000     -1.19071000      4.32384000
  O      5.14432000     -0.92052300      5.17519000
  C     -5.68746000     -0.42671100      0.80899700
  O     -6.67966000     -0.64497400      0.01743410
  C      1.01442000      5.68911000      0.88439200
  O      1.44465000      6.89218000      0.75481100
  C      1.85435000     -0.15762400     -5.39357000
  O      2.26257000     -0.45361500     -6.58617000
  C      3.66850000      1.70103000     -4.64847000
  O      4.84002000      1.88999000     -5.15696000

