#B3LYP/6-31+G(d) OPT FREQ

110, Energy = -12146.61578887 au

0 1
 Ni      0.08748960     -3.90136000     -2.28154000
 Ni     -1.45830000     -0.27229000     -1.15574000
 Ni      0.61742800     -4.64890000      0.15982700
 Ni     -0.55583100      4.07352000     -0.15253700
 Ni     -1.38789000      2.40157000     -2.06426000
 Ni     -3.32893000      0.51182500      0.67167100
 Ni     -0.98719500     -0.95626000      1.30926000
 Ni     -0.15978600      3.70792000      2.50288000
 Ni      0.32554300     -1.12917000     -3.17127000
 Ni      3.20951000     -0.66667500     -0.66849800
 Ni      0.72715900     -1.77476000     -0.57683900
 Ni      2.49009000     -2.71241000     -2.77236000
 Ni      3.48753000      1.82930000     -1.48935000
 Ni      1.75438000     -0.16568800      4.04630000
 Ni      1.38714000      0.20972600      1.27045000
 Ni      2.86775000      0.08226030     -3.11848000
 Ni      1.20174000      3.31205000     -2.00856000
 Ni     -2.02564000     -2.22698000     -2.83874000
 Ni      3.70149000     -1.32372000      1.73864000
 Ni     -1.69026000     -2.94749000     -0.40047300
 Ni      3.83692000      1.31534000      1.15031000
 Ni      0.93880200      0.82486900     -1.26053000
 Ni     -1.90201000      0.57569200     -3.61204000
 Ni     -3.96128000     -1.48481000     -0.97460400
 Ni      2.20080000      2.45063000      2.98608000
 Ni     -0.42723600      1.14774000      3.20732000
 Ni      2.99250000     -3.28962000      0.18827600
 Ni     -1.55369000     -3.58172000      2.19556000
 Ni     -3.04820000      3.04878000      0.28700000
 Ni      1.69391000      2.88020000      0.59102900
 Ni     -2.75113000      2.73586000      2.70455000
 Ni     -2.64002000     -0.10071300      3.09028000
 Ni      0.54363000      1.47873000     -3.73138000
 Ni     -0.80251300      1.62709000      0.62815300
 Ni     -3.55333000     -2.08725000      1.44710000
 Ni     -0.69776600     -1.69295000      3.91249000
 Ni     -3.77021000      1.34549000     -1.75885000
 Ni      1.22527000     -2.42481000      2.05703000
  C      1.65237000     -4.63110000      3.21511000
  O      1.16230000     -5.32341000      4.20080000
  C      4.98801000      0.62446200     -2.53545000
  O      6.18636000      0.53079200     -2.83818000
  C      5.16206000     -1.99322000      0.48719000
  O      6.47652000     -2.13730000      0.44070800
  C      1.23822000     -1.92595000     -5.33046000
  O      1.95206000     -1.37225000     -6.27968000
  C      0.57144900      0.16727700      5.86176000
  O      0.01884070     -0.18052800      6.96368000
  C     -2.76391000      2.78248000      4.67842000
  O     -3.51187000      3.43366000      5.49249000
  C     -1.04889000      4.60166000      4.10317000
  O     -0.99303100      4.68227000      5.38009000
  C     -3.11127000     -4.76887000     -1.46310000
  O     -3.51908000     -5.97488000     -1.27041000
  C      3.89812000     -0.02782090      4.87434000
  O      4.44581000      0.05979530      6.03765000
  C     -5.70914000     -0.35222400     -0.13135200
  O     -6.85312000      0.15204000     -0.42225600
  C      2.86228000     -5.18185000      1.23863000
  O      3.79577000     -5.81229000      1.83879000
  C      1.38900000      1.33912000      5.58735000
  O      1.76657000      2.27442000      6.37704000
  C     -5.60584000      2.33766000      0.18031600
  O     -6.76161000      2.31869000      0.79977300
  C      3.57375000      3.65036000      4.33635000
  O      4.11653000      4.81437000      4.23535000
  C     -4.14954000     -3.63406000     -1.40397000
  O     -5.34817000     -4.08802000     -1.44996000
  C     -5.54351000      2.15541000     -1.11520000
  O     -6.61030000      2.29819000     -1.79559000
  C     -2.52649000      2.99311000     -3.61810000
  O     -2.82742000      4.03963000     -4.32360000
  C      1.54696000     -5.64097000      1.89238000
  O      1.13189000     -6.85325000      2.13980000
  C     -3.54599000     -4.59933000      1.63754000
  O     -4.59371000     -5.29037000      1.91711000
  C     -1.55333000      2.02139000      4.94800000
  O     -1.16197000      2.05167000      6.17848000
  C      2.74179000     -3.62032000      3.26798000
  O      3.79236000     -3.90547000      3.93454000
  C     -4.69526000      2.73337000      1.58427000
  O     -5.44344000      3.28097000      2.47926000
  C     -2.09743000     -3.32410000      4.30948000
  O     -2.75003000     -3.91237000      5.24213000
  C     -2.34444000     -5.31086000      1.15546000
  O     -2.23581000     -6.53127000      0.78858500
  C     -2.86920000      4.70193000      2.27761000
  O     -3.77597000      5.62212000      2.32089000
  C     -0.86510600     -5.76678000     -1.38857000
  O     -1.09180000     -7.02419000     -1.35908000
  C      5.15853000      1.63826000      3.01257000
  O      6.37812000      1.79618000      3.38312000
  C     -5.53997000     -1.19289000      1.11500000
  O     -6.58274000     -1.47376000      1.81415000
  C     -1.85866000     -5.14275000     -2.41542000
  O     -2.21778000     -5.63083000     -3.55159000
  C      3.85623000     -4.20261000     -2.58759000
  O      3.82973000     -5.47684000     -3.18633000
  C      2.36100000      4.42155000      1.90980000
  O      3.14076000      5.50550000      1.93507000
  C      1.52129000     -5.54046000     -1.51135000
  O      1.94134000     -6.76578000     -1.85880000
  C      4.63516000     -2.94076000     -2.63511000
  O      5.82177000     -2.83222000     -3.17886000
  C     -0.29390500     -1.88773000     -5.26003000
  O     -0.74349900     -2.48022000     -6.30332000
  C      1.70787000     -3.19687000     -4.51093000
  O      1.88596000     -4.11224000     -5.38770000
  C     -1.66750000      5.43834000      3.00271000
  O     -1.40620000      6.69997000      3.03300000

