110
Energy = -11873.18974568 au
 Ni      0.13551300     -3.93707000     -2.27760000
 Ni     -1.39809000     -0.24649700     -1.16480000
 Ni      0.46602600     -4.29597000      0.22271900
 Ni     -0.36584600      4.49501000     -0.21751500
 Ni     -1.10148000      2.32524000     -1.96179000
 Ni     -3.33413000      0.56209300      0.80815200
 Ni     -0.99502700     -0.87561700      1.35565000
 Ni     -0.27849100      3.60200000      2.51287000
 Ni      0.27156300     -1.03125000     -3.01293000
 Ni      3.28944000     -0.55060900     -0.74230100
 Ni      0.75900700     -1.70330000     -0.54398500
 Ni      2.63708000     -2.66797000     -2.34964000
 Ni      3.47600000      1.80643000     -1.40183000
 Ni      1.74425000     -0.49083100      4.03635000
 Ni      1.46816000      0.19603200      1.24961000
 Ni      2.58392000      0.10299400     -3.25583000
 Ni      1.21628000      3.56980000     -2.01629000
 Ni     -2.30890000     -2.17999000     -3.17562000
 Ni      4.09374000     -1.13881000      1.96661000
 Ni     -1.65063000     -2.96031000     -0.45566000
 Ni      4.04170000      1.20434000      1.12463000
 Ni      0.98915800      0.87336900     -1.30587000
 Ni     -2.04959000      0.23216300     -3.72383000
 Ni     -3.68892000     -1.35598000     -1.03195000
 Ni      2.00959000      2.10287000      3.23122000
 Ni     -0.25761400      1.01119000      3.30172000
 Ni      2.96173000     -2.94934000      0.05399650
 Ni     -1.09757000     -3.41877000      2.06198000
 Ni     -2.95258000      2.98772000      0.02081410
 Ni      1.60304000      2.67374000      0.47215200
 Ni     -2.41615000      2.46599000      2.74211000
 Ni     -2.89495000     -0.34377300      3.35225000
 Ni      0.46545900      1.61266000     -4.01900000
 Ni     -0.76112400      1.65500000      0.61672000
 Ni     -3.60687000     -2.09012000      1.64611000
 Ni     -0.46302800     -1.66391000      3.98157000
 Ni     -3.57836000      1.19099000     -1.69278000
 Ni      1.28504000     -2.31604000      2.07156000
  C     -2.44777000      3.11544000      4.59577000
  O     -3.25292000      3.27969000      5.58582000
  C     -4.36454000     -2.25634000      3.69297000
  O     -5.01292000     -2.97398000      4.45960000
  C     -1.69671000     -5.01954000     -3.05975000
  O     -2.54094000     -5.73589000     -3.71189000
  C     -1.89791000      5.26333000      2.10556000
  O     -2.25984000      6.34455000      2.68098000
  C     -3.76798000     -0.69227600     -4.75542000
  O     -4.55707000     -0.25030200     -5.69060000
  C     -1.13402000      3.77288000      4.48175000
  O     -0.56557100      4.22742000      5.54857000
  C      5.67302000     -1.14544000      1.00607000
  O      6.65546000     -1.74733000      1.59715000
  C     -2.33242000     -4.98616000     -0.59674800
  O     -3.35817000     -5.79621000     -0.54947100
  C      0.93244200     -5.38302000      2.27867000
  O      0.96457900     -5.85632000      3.47312000
  C      1.02472000      0.18746500      5.63307000
  O      1.26770000      0.14656600      6.90170000
  C     -1.39599000     -2.58328000     -5.25452000
  O     -1.78252000     -3.16743000     -6.33299000
  C      5.07655000     -2.04523000      3.83054000
  O      6.10539000     -1.70765000      4.52982000
  C      2.22180000     -4.83647000     -2.74575000
  O      3.01352000     -5.54093000     -3.50989000
  C      1.83028000     -6.19129000     -0.24034500
  O      2.23316000     -7.39780000     -0.30760800
  C      0.52612100      1.70074000      5.58805000
  O     -0.42403900      2.01742000      6.36744000
  C     -2.15835000     -2.80265000      5.06579000
  O     -2.42615000     -3.37751000      6.17809000
  C      1.49052000      0.20003900     -5.61295000
  O      1.47649000     -0.00647111     -6.83641000
  C     -4.45254000     -4.06619000      0.81024700
  O     -5.29042000     -4.99406000      1.11040000
  C      1.47002000     -5.85313000     -1.83814000
  O      0.96978500     -6.97294000     -2.32619000
  C      5.41753000     -2.44260000     -0.73653800
  O      6.68918000     -2.27747000     -0.67942700
  C     -4.00332000     -2.02650000     -4.28474000
  O     -5.01580000     -2.76213000     -4.68800000
  C      1.21646000      5.89281000     -0.29131100
  O      1.39091000      7.03555000      0.30605900
  C      1.96053000     -5.97896000      1.43931000
  O      3.05061000     -6.45701000      1.88897000
  C     -5.12855000      2.12398000      0.12748200
  O     -6.34772000      2.47192000      0.44509500
  C      1.72908000     -2.85028000      4.33681000
  O      2.26094000     -3.77122000      5.09389000
  C      1.65139000      2.56806000      5.09391000
  O      2.21029000      3.03012000      6.19119000
  C     -1.59014000      5.33240000     -2.06941000
  O     -1.87663000      6.48858000     -2.56485000
  C     -1.57166000     -5.73260000     -1.72811000
  O     -1.12455000     -6.92977000     -1.55749000
  C     -0.24544600      3.81213000     -4.26091000
  O     -0.65066500      4.56639000     -5.19849000
  C      5.94661000      0.16584500      0.15871000
  O      7.26608000      0.42262300      0.27057700
  C     -5.11625000     -0.19420100      1.97510000
  O     -6.38492000      0.04200140      2.15243000
  C      4.66349000     -2.88601000     -1.95155000
  O      5.58923000     -3.41594000     -2.69508000
  C     -3.27865000     -0.64183600      5.66547000
  O     -4.11154000     -1.31711000      6.38541000
  C      5.12618000      0.68314700      3.06559000
  O      6.16362000      0.89184400      3.72344000
  C      2.21145000      5.44041000     -1.18256000
  O      3.32649000      6.07390000     -1.33939000
  C      5.27951000      0.35259600     -1.26825000
  O      6.17420000      0.33660400     -2.20327000
