110
Energy = -12396.62557177 au
 Ni      0.34876200     -3.52105000     -2.47387000
 Ni     -1.40088000     -0.19760800     -1.20093000
 Ni      0.32878500     -4.42292000      0.22103200
 Ni     -0.34480400      4.55960000     -0.27474400
 Ni     -1.19809000      2.36276000     -1.91664000
 Ni     -3.32240000      0.38030000      0.63442100
 Ni     -0.99362200     -0.91271200      1.32404000
 Ni      0.00387705      3.49008000      2.19522000
 Ni      0.46491700     -0.95267300     -3.24047000
 Ni      3.43294000     -0.52872700     -0.81513300
 Ni      0.81441500     -1.68817000     -0.59849400
 Ni      2.64644000     -2.47571000     -2.63752000
 Ni      3.67153000      2.01147000     -1.72249000
 Ni      2.00380000     -0.24431600      3.98953000
 Ni      1.51309000      0.20243300      1.20600000
 Ni      2.76055000      0.25029700     -3.36756000
 Ni      1.43618000      3.31947000     -2.22877000
 Ni     -1.95198000     -2.09928000     -2.84093000
 Ni      3.70117000     -1.29731000      1.74225000
 Ni     -1.63643000     -2.76275000     -0.31087100
 Ni      4.05412000      1.25327000      0.90552500
 Ni      1.10227000      0.87267000     -1.30667000
 Ni     -2.14477000      0.29785400     -3.75381000
 Ni     -3.81107000     -1.61367000     -0.93054500
 Ni      2.39858000      2.17746000      2.96103000
 Ni     -0.27980000      0.94861600      3.03045000
 Ni      2.81771000     -3.29459000     -0.00994513
 Ni     -1.30622000     -3.46890000      2.52387000
 Ni     -3.20683000      3.06360000     -0.32356700
 Ni      1.81241000      2.98757000      0.38740400
 Ni     -2.75396000      2.23778000      2.33238000
 Ni     -2.92231000     -0.32210500      3.09256000
 Ni      0.65002800      1.59755000     -3.85142000
 Ni     -0.76502900      1.66334000      0.53392100
 Ni     -3.72477000     -2.06426000      1.67165000
 Ni     -0.41877500     -1.46706000      3.88987000
 Ni     -3.79111000      1.22466000     -1.89418000
 Ni      1.26289000     -2.58721000      2.09041000
  C     -5.03874000      1.99877000     -0.06221770
  O     -6.18589000      2.56209000     -0.17101500
  C      2.78750000      4.27244000      3.04969000
  O      3.76840000      4.97507000      3.42506000
  C      1.28338000     -1.40142000     -4.98643000
  O      1.47835000     -0.87775900     -6.14893000
  C      5.34127000      1.08864000     -1.80615000
  O      6.18711000      0.73472400     -2.71412000
  C     -4.44714000     -3.38316000     -0.31568300
  O     -5.24303000     -4.35820000     -0.70588200
  C     -3.68111000      3.95683000     -1.95824000
  O     -4.20094000      5.08075000     -2.35504000
  C      4.54654000     -2.73368000     -3.01005000
  O      5.24516000     -3.23128000     -3.96589000
  C      0.72385900     -2.78811000     -5.31885000
  O      0.09351230     -3.07210000     -6.40550000
  C      0.25569200     -7.00818000     -0.76130100
  O      1.06188000     -7.87241000     -1.23253000
  C      4.01250000      3.24894000     -3.42058000
  O      4.98077000      4.10075000     -3.38773000
  C      3.71433000      0.57920700      4.45375000
  O      4.56589000      0.55490100      5.44823000
  C      0.70107200     -0.08466370      5.56253000
  O      0.71960000      0.26767900      6.82963000
  C      5.48302000     -1.57799000      1.00578000
  O      6.58254000     -1.88483000      1.59205000
  C      0.16252000     -4.36781000      3.48878000
  O      0.39875100     -5.42958000      4.22916000
  C      2.71285000     -3.90684000      2.42588000
  O      3.01710000     -4.85090000      3.29526000
  C      1.88163000     -6.06457000      1.10400000
  O      1.64776000     -6.95648000      2.09958000
  C      2.19581000      4.99963000      0.59262800
  O      3.34188000      5.58693000      0.59788100
  C      0.96708900     -3.88231000     -4.28621000
  O      1.07684000     -4.97435000     -4.96284000
  C      3.73879000      1.96138000     -4.47827000
  O      4.54851000      1.62232000     -5.41779000
  C      5.94079000      1.29094000      0.57617600
  O      7.06452000      0.81816700      0.98366100
  C     -3.94442000     -2.42555000      3.79088000
  O     -4.95112000     -2.34561000      4.59616000
  C     -1.40643000      5.28412000     -1.98417000
  O     -1.73282000      6.42810000     -2.44508000
  C      2.79178000     -6.08855000     -0.29908300
  O      3.40886000     -7.22215000     -0.25418700
  C      2.59904000      3.19283000     -4.33310000
  O      2.36985000      4.04774000     -5.26616000
  C      5.17006000     -2.61692000     -1.65333000
  O      6.21899000     -3.32280000     -1.42195000
  C     -4.66133000      0.51362000     -3.83703000
  O     -5.87875000      0.78104400     -4.17352000
  C      5.53725000     -1.35993000     -0.50743300
  O      6.63633000     -0.90652200     -0.99508700
  C      6.21197000      1.89379000     -0.77908600
  O      7.09630000      2.78441000     -1.02631000
  C     -5.02278000     -0.54252200      1.97322000
  O     -6.16360000     -0.96110200      2.41005000
  C      2.75386000     -5.10347000     -1.41119000
  O      3.15318000     -5.58326000     -2.53487000
  C     -0.79588400     -6.25949000     -0.26029200
  O     -1.97346000     -6.79164000     -0.17478700
  C      0.91873800      5.75354000      0.80706600
  O      0.85011100      6.97220000      1.22069000
  C     -2.91339000     -3.53254000      3.79590000
  O     -3.05643000     -4.47505000      4.66131000
  C     -3.81739000     -0.19155300     -4.78441000
  O     -4.10204000     -0.81884500     -5.87016000
  C     -5.47645000      1.01113000      1.52340000
  O     -6.79016000      0.92497500      1.43697000
  C     -4.72532000      2.04309000      2.45798000
  O     -5.57964000      2.85006000      2.97466000
