#B3LYP/6-31+G(d) OPT FREQ

110, Energy = -12167.36932688 au

0 1
 Ni      0.06236140     -3.39749000     -2.22871000
 Ni     -1.45232000     -0.27278600     -1.12766000
 Ni      0.62308000     -4.07538000      0.32979700
 Ni     -0.46236300      4.12467000     -0.23628700
 Ni     -1.25807000      2.31942000     -1.92969000
 Ni     -3.35852000      0.56048500      0.81189600
 Ni     -1.01688000     -0.92407500      1.39507000
 Ni     -0.04426460      3.50698000      2.42164000
 Ni      0.39389200     -1.02898000     -3.33417000
 Ni      3.29824000     -0.65372500     -0.81031900
 Ni      0.80330900     -1.62754000     -0.51270900
 Ni      2.57188000     -2.31619000     -2.65222000
 Ni      3.49470000      1.79363000     -1.58505000
 Ni      1.88411000     -0.69054100      3.68848000
 Ni      1.45185000      0.24627900      1.20365000
 Ni      2.58298000      0.14613400     -3.60589000
 Ni      1.10381000      3.68719000     -2.33795000
 Ni     -2.28790000     -2.04499000     -2.94985000
 Ni      3.75778000     -1.20846000      1.82748000
 Ni     -1.84220000     -2.99168000     -0.27445200
 Ni      3.96608000      1.21193000      0.87195500
 Ni      1.00851000      0.91363300     -1.37163000
 Ni     -1.94428000      0.36983300     -3.59497000
 Ni     -4.11416000     -1.13751000     -1.02027000
 Ni      1.92776000      2.24798000      3.07511000
 Ni     -0.41338100      1.05587000      3.21782000
 Ni      3.27777000     -3.20788000      0.28740500
 Ni     -0.98411500     -3.54601000      2.32136000
 Ni     -3.21885000      3.12468000     -0.12650500
 Ni      1.79076000      2.99104000      0.41341200
 Ni     -2.84097000      2.59085000      2.84426000
 Ni     -3.03742000     -0.29697200      3.35668000
 Ni      0.47689800      1.61335000     -4.10262000
 Ni     -0.81876800      1.64563000      0.61367000
 Ni     -3.59281000     -1.97654000      1.42836000
 Ni     -0.44817200     -1.71359000      3.97273000
 Ni     -3.76438000      1.24029000     -1.70230000
 Ni      1.30855000     -2.44275000      2.10710000
  C      3.88296000     -4.72828000      1.40939000
  O      4.96774000     -5.38041000      1.64046000
  C      5.29328000     -2.68840000      0.78350000
  O      6.19661000     -3.52293000      0.43169400
  C     -2.02575000      2.92606000      4.54058000
  O     -2.76930000      3.51441000      5.41270000
  C     -3.98076000     -1.65814000      4.39578000
  O     -4.49667000     -2.01432000      5.54955000
  C      5.91028000     -1.29454000      1.19006000
  O      7.02147000     -1.08284000      1.83263000
  C     -0.25888800      3.60926000     -4.60886000
  O     -1.03861000      3.91342000     -5.59185000
  C     -2.94026000      4.71046000      2.85007000
  O     -3.82989000      5.41202000      3.44679000
  C      0.24685600      4.66692000     -3.74863000
  O      0.14559800      5.93773000     -3.95475000
  C     -1.97043000     -2.86992000      5.26714000
  O     -2.19723000     -3.26472000      6.46687000
  C     -3.59516000     -4.49023000      0.41503500
  O     -4.61389000     -5.10221000      0.90038600
  C      1.56525000     -1.91332000     -4.65985000
  O      1.52488000     -2.36357000     -5.93775000
  C     -5.37888000      2.60410000      0.06977170
  O     -6.19526000      3.53221000     -0.28007900
  C     -5.12666000      1.52842000      2.97251000
  O     -5.48400000      2.25712000      3.97734000
  C     -2.65258000     -4.98374000     -0.49328200
  O     -2.53301000     -6.14996000     -1.03152000
  C      5.21775000      0.87514500     -2.01767000
  O      6.19459000      0.67391600     -2.82378000
  C     -5.92737000      1.38753000     -0.92297900
  O     -6.88885000      1.81805000     -1.63536000
  C     -5.74953000     -0.16080600     -0.83189700
  O     -6.94737000     -0.62666800     -0.77703900
  C      0.15958600     -4.52305000      3.45359000
  O      0.19771900     -5.78127000      3.73487000
  C     -4.82097000      0.01165110      3.77141000
  O     -5.94773000     -0.57681700      3.97010000
  C     -5.32894000     -1.09694000      1.46592000
  O     -6.53138000     -1.56329000      1.58619000
  C      2.58657000     -4.87056000      2.03479000
  O      2.43244000     -5.66375000      3.03087000
  C      5.97832000     -0.80616700     -0.34324500
  O      6.68933000     -1.36945000     -1.25353000
  C     -0.72821100      2.46592000      5.23237000
  O     -0.85397700      2.01304000      6.43867000
  C      1.96712000     -2.74215000      4.29700000
  O      2.93016000     -3.19402000      5.03198000
  C      0.73722000      2.83653000      4.78075000
  O      1.31553000      3.25213000      5.85198000
  C      0.83928000     -3.81924000      4.65208000
  O      0.65135400     -4.22331000      5.84302000
  C      2.62576000      0.19672300     -5.62737000
  O      3.43056000      0.00545138     -6.60648000
  C      4.71445000     -2.73700000     -2.14320000
  O      5.78066000     -2.98344000     -2.79803000
  C     -4.14289000     -1.33911000     -3.98562000
  O     -4.95278000     -1.77812000     -4.87283000
  C     -5.64264000      0.46961400      1.67986000
  O     -6.72159000      1.10743000      1.44455000
  C     -3.06518000      4.25632000     -2.05810000
  O     -3.76290000      5.21831000     -2.62875000
  C      1.14803000      0.36945800     -5.74767000
  O      0.44876300      0.00073209     -6.76425000
  C      5.68809000      0.80489800     -0.55126500
  O      6.82881000      1.07018000      0.05321640
  C      2.24034000      4.56396000      2.06612000
  O      2.93205000      5.71476000      2.11080000
  C      2.15163000      5.10709000     -0.65193100
  O      2.89314000      6.12498000     -0.52927600
  C     -4.90684000      2.70622000      1.71927000
  O     -5.62398000      3.63721000      2.24445000

