#B3LYP/6-31+G(d) OPT FREQ

110, Energy = -12205.35658743 au

0 1
 Ni     -0.00051990     -3.44712000     -2.30564000
 Ni     -1.48360000     -0.23863400     -1.18692000
 Ni      0.45140200     -4.42729000      0.43563000
 Ni     -0.55446100      4.57601000     -0.08404440
 Ni     -1.26481000      2.56342000     -1.88423000
 Ni     -3.38769000      0.69779800      0.69913600
 Ni     -1.00130000     -0.93523400      1.27316000
 Ni     -0.02113760      3.84583000      2.47797000
 Ni      0.22996800     -1.04928000     -3.11242000
 Ni      3.42298000     -0.53716600     -0.64896500
 Ni      0.72728000     -1.66155000     -0.51983200
 Ni      2.56836000     -2.35590000     -2.34014000
 Ni      3.47108000      1.96186000     -1.45628000
 Ni      1.97039000     -0.53952000      3.80384000
 Ni      1.45839000      0.20971900      1.19186000
 Ni      2.81158000      0.12772200     -3.08443000
 Ni      1.23689000      3.68890000     -1.86069000
 Ni     -2.15788000     -2.12299000     -3.12692000
 Ni      3.84986000     -1.04149000      1.96841000
 Ni     -1.77394000     -2.87429000     -0.49144400
 Ni      3.94925000      1.43292000      1.30899000
 Ni      0.96900400      0.87451600     -1.27682000
 Ni     -2.11671000      0.31050600     -3.73301000
 Ni     -4.13327000     -1.26446000     -1.14636000
 Ni      2.14849000      2.39596000      2.86858000
 Ni     -0.24848600      1.00971000      2.97269000
 Ni      3.01632000     -2.97156000      0.04768620
 Ni     -1.14106000     -3.73214000      2.03173000
 Ni     -3.13997000      3.35951000      0.00086268
 Ni      1.61757000      2.76058000      0.47898200
 Ni     -2.42934000      2.55426000      2.47707000
 Ni     -2.64154000     -0.14749600      3.08246000
 Ni      0.50050500      1.52058000     -3.68978000
 Ni     -0.80391300      1.71086000      0.55554000
 Ni     -3.59067000     -2.05688000      1.16991000
 Ni     -0.49410400     -1.61194000      3.84369000
 Ni     -3.78947000      1.06390000     -1.93835000
 Ni      1.26720000     -2.32694000      2.03939000
  C     -0.63783100     -2.64668000     -4.80317000
  O     -0.63352100     -2.98533000     -6.05480000
  C      2.00072000      5.46371000     -1.13285000
  O      3.07529000      6.13327000     -1.40274000
  C      4.31187000      3.10891000     -3.36477000
  O      5.29383000      3.73451000     -3.91626000
  C     -4.46452000      1.26007000     -4.23290000
  O     -5.22527000      1.64288000     -5.19011000
  C      2.44263000     -2.80501000      4.02282000
  O      2.87950000     -3.71437000      4.83146000
  C      5.09427000     -0.20982000      3.43208000
  O      5.76697000     -0.63227000      4.45558000
  C     -4.76258000     -0.22753500     -4.28389000
  O     -5.98972000     -0.58333300     -4.13081000
  C     -5.15046000      2.64539000      0.38243900
  O     -6.29234000      3.05798000     -0.02968520
  C     -3.21891000      5.08770000      0.96154100
  O     -4.25957000      5.72885000      1.36568000
  C      1.19938000      0.29064600      5.89937000
  O      1.54459000      0.64258800      7.09022000
  C      1.73712000      4.85914000      3.16409000
  O      2.26097000      6.03319000      3.27926000
  C     -2.74481000      4.75512000     -1.90527000
  O     -3.63265000      5.59032000     -2.26077000
  C     -5.21573000     -2.45640000     -2.45210000
  O     -5.99692000     -2.64139000     -3.44965000
  C      4.74684000     -2.98472000     -1.43008000
  O      5.98822000     -3.28228000     -1.59945000
  C     -1.54171000      4.70486000     -2.77141000
  O     -1.38754000      5.46511000     -3.78787000
  C     -5.64797000     -0.86948000      0.70435400
  O     -6.68704000     -1.11840000      1.39661000
  C     -1.89465000      5.73918000      1.03702000
  O     -1.79103000      6.89216000      1.58186000
  C     -1.51670000      3.84073000      4.41890000
  O     -1.47541000      3.72325000      5.73983000
  C     -2.83106000     -4.55206000     -1.58911000
  O     -3.81660000     -5.14082000     -2.16028000
  C      5.44812000     -0.99969100      0.42014200
  O      6.72058000     -1.26336000      0.25540900
  C      5.35099000      1.11063000      2.87549000
  O      6.31587000      1.82972000      3.32655000
  C     -1.84691000     -5.40952000      0.77458800
  O     -2.34330000     -6.46414000      1.26757000
  C     -3.55507000     -0.97360100     -4.84540000
  O     -3.99826000     -1.20540000     -6.01472000
  C      5.00105000      0.06844540     -2.21285000
  O      6.27846000     -0.18987200     -2.50291000
  C     -5.33524000     -3.47097000     -1.35193000
  O     -6.25122000     -4.32927000     -1.72961000
  C     -2.08522000     -5.56230000     -0.75721800
  O     -1.95808000     -6.70801000     -1.36799000
  C     -5.10028000      1.69515000      1.52885000
  O     -6.09127000      1.49065000      2.32468000
  C     -5.76672000      0.05191600     -0.50985700
  O     -6.87643000      0.64660100     -0.79382400
  C      1.04361000      5.93784000     -0.15972200
  O      1.22329000      7.06268000      0.46185200
  C      3.77177000      3.70313000      2.11607000
  O      4.43092000      4.77417000      2.45748000
  C     -2.64991000      4.71344000      3.58319000
  O     -3.69569000      5.38439000      3.73262000
  C     -2.14696000     -2.54497000      5.30485000
  O     -2.38169000     -3.26218000      6.34917000
  C      0.36449500     -5.16087000      2.93579000
  O      0.36438500     -5.68696000      4.10650000
  C      1.29198000     -5.64081000      1.93078000
  O      2.18719000     -6.53491000      2.07337000
  C     -4.65958000     -3.64235000     -0.00167698
  O     -4.90988000     -4.82259000      0.41189500
  C     -1.10098000      5.25096000      3.68936000
  O     -0.80921700      6.53382000      3.93043000

