110
Energy = -12033.51624435 au
 Ni     -0.03953810     -3.49251000     -2.36270000
 Ni     -1.44597000     -0.25442200     -1.21870000
 Ni      0.63363900     -4.36044000      0.47768600
 Ni     -0.50011500      4.17904000     -0.29464000
 Ni     -1.16299000      2.18452000     -1.94083000
 Ni     -3.27556000      0.50703000      0.75301500
 Ni     -0.99597400     -0.90719800      1.32307000
 Ni     -0.16106300      3.72922000      2.30801000
 Ni      0.38125200     -0.94632300     -3.21636000
 Ni      3.21410000     -0.52897400     -0.71394300
 Ni      0.74672100     -1.65261000     -0.55099200
 Ni      2.66377000     -2.36876000     -2.36821000
 Ni      3.59492000      1.96311000     -1.60176000
 Ni      1.80665000     -0.41187900      3.79633000
 Ni      1.40101000      0.19928800      1.19082000
 Ni      2.92805000      0.33320200     -3.22966000
 Ni      1.33539000      3.26126000     -2.21469000
 Ni     -2.05544000     -2.31532000     -3.12523000
 Ni      3.55999000     -1.28044000      1.89996000
 Ni     -1.67363000     -2.75849000     -0.42561300
 Ni      3.73884000      1.32725000      1.00778000
 Ni      1.01952000      0.85999200     -1.34036000
 Ni     -1.79648000      0.19978300     -3.91847000
 Ni     -4.03761000     -1.18183000     -1.02266000
 Ni      2.07792000      2.29441000      2.86117000
 Ni     -0.31000900      1.01275000      3.10163000
 Ni      2.82939000     -3.05198000      0.17833400
 Ni     -1.14508000     -3.59411000      2.15717000
 Ni     -2.97179000      3.00966000      0.06982970
 Ni      1.63570000      2.80559000      0.49524600
 Ni     -2.66510000      2.69489000      2.45082000
 Ni     -2.85979000     -0.30508200      3.18051000
 Ni      0.77159600      1.50911000     -4.22681000
 Ni     -0.75676500      1.63553000      0.58781200
 Ni     -3.46093000     -2.18395000      1.70568000
 Ni     -0.57920400     -1.51023000      3.86502000
 Ni     -3.89785000      1.13559000     -1.79393000
 Ni      1.21689000     -2.34477000      2.08931000
  C     -2.42828000     -4.53864000     -2.57326000
  O     -3.14027000     -5.53887000     -2.92124000
  C     -3.55049000     -4.51819000      1.32414000
  O     -4.36276000     -5.47387000      1.17485000
  C      5.35552000      0.28886700     -2.49689000
  O      6.13353000      0.20745900     -3.52357000
  C     -5.57134000      1.72090000      1.11345000
  O     -6.80969000      1.60583000      1.40338000
  C     -1.82313000     -0.91146100     -5.61240000
  O     -1.73932000     -0.73419000     -6.83264000
  C     -2.98534000      4.90790000      2.23669000
  O     -3.89471000      5.80963000      2.10499000
  C     -5.11119000     -0.29949600     -3.17637000
  O     -6.13663000     -0.31043400     -3.94592000
  C      1.71612000     -5.99158000     -0.90113600
  O      2.08536000     -7.22537000     -0.94143200
  C      1.29218000      1.26189000      5.44952000
  O      1.25001000      1.41517000      6.70686000
  C     -3.95630000     -2.07416000      4.19071000
  O     -4.62195000     -2.08102000      5.29797000
  C     -3.88014000     -3.36405000      3.52865000
  O     -4.22097000     -4.50322000      4.00434000
  C      0.39857700      0.76711400     -6.11172000
  O      0.17383700      1.06689000     -7.33836000
  C      1.64947000     -5.25215000      2.39312000
  O      2.09463000     -6.44540000      2.24301000
  C      4.75164000     -2.71720000     -2.49950000
  O      5.61410000     -3.62300000     -2.78091000
  C      4.21885000      1.88671000     -4.12678000
  O      5.06840000      2.02844000     -5.07571000
  C      2.90363000     -4.30931000      2.80748000
  O      3.91585000     -5.07378000      2.90998000
  C      3.37809000      3.16329000     -4.18673000
  O      3.95263000      4.31407000     -4.20097000
  C     -5.71222000      1.25760000     -0.57478400
  O     -6.62298000      1.97133000     -1.12642000
  C     -5.80415000     -0.28592700     -0.55173400
  O     -6.91054000     -0.68969700      0.00929029
  C     -4.69622000      2.77898000      1.80428000
  O     -5.62473000      3.53592000      2.31809000
  C      0.72247200     -0.55618800     -5.58504000
  O      0.98871800     -1.47899000     -6.44513000
  C     -1.81302000     -2.45304000     -5.54574000
  O     -2.57945000     -3.08848000     -6.39978000
  C      5.74598000     -1.14709000      0.83926600
  O      6.96873000     -1.55053000      0.89786000
  C      3.26228000      4.21174000      2.31131000
  O      4.39250000      4.79887000      2.44300000
  C      0.26003800     -4.95094000      3.03857000
  O      0.29151100     -5.66237000      4.10760000
  C     -0.62730100     -0.24900700      5.86262000
  O     -0.82647700     -0.22544000      7.12970000
  C      5.62372000      1.40903000     -1.49379000
  O      6.83982000      1.70063000     -1.22208000
  C     -1.81967000      5.58958000     -1.74490000
  O     -1.96403000      6.66231000     -2.44270000
  C     -5.16153000     -0.40354000      2.13788000
  O     -6.37776000     -0.41423200      2.54986000
  C     -2.30440000      2.68167000      4.80951000
  O     -2.66676000      3.34518000      5.85343000
  C     -0.66460800     -3.20525000     -4.81904000
  O     -0.22788500     -3.92695000     -5.75928000
  C      2.82065000     -3.07087000      3.70100000
  O      3.21109000     -3.38712000      4.88114000
  C     -1.75093000      5.14231000      2.99382000
  O     -1.73491000      6.19492000      3.75456000
  C      2.08703000      2.79208000     -4.93986000
  O      2.43957000      3.06765000     -6.14906000
  C      2.00786000      4.95907000      2.14471000
  O      2.08332000      6.23997000      2.18132000
  C      5.28158000     -1.42029000     -1.97327000
  O      6.52450000     -1.45263000     -1.62749000
