110
Energy = -12309.28848618 au
 Ni      0.31791500     -3.49720000     -2.25703000
 Ni     -1.44620000     -0.20540700     -1.13505000
 Ni      0.79603800     -4.60565000      0.16471200
 Ni     -0.66762900      4.17501000     -0.34857500
 Ni     -1.20953000      2.40970000     -2.13715000
 Ni     -3.35201000      0.58120400      0.77865500
 Ni     -1.04564000     -0.92531800      1.38330000
 Ni     -0.07985250      3.90600000      2.29562000
 Ni      0.39721400     -0.91095900     -3.06870000
 Ni      3.16944000     -0.57008400     -0.82187000
 Ni      0.71411600     -1.68121000     -0.50769000
 Ni      2.59074000     -2.43699000     -2.66057000
 Ni      3.40490000      2.09872000     -1.37764000
 Ni      2.02113000     -0.32251400      3.71401000
 Ni      1.41361000      0.27468800      1.19070000
 Ni      2.73417000      0.35429400     -3.63571000
 Ni      1.28062000      3.32188000     -2.12446000
 Ni     -1.99182000     -2.03356000     -2.85837000
 Ni      3.50976000     -1.22453000      1.86634000
 Ni     -1.69693000     -2.98799000     -0.51048300
 Ni      3.92721000      1.50399000      1.54376000
 Ni      0.97198300      0.90426600     -1.37173000
 Ni     -1.88549000      0.59952100     -3.74639000
 Ni     -3.80658000     -1.43694000     -0.95111300
 Ni      2.10652000      2.30086000      3.00540000
 Ni     -0.36827800      0.89193500      3.31798000
 Ni      2.84957000     -3.09247000      0.20503200
 Ni     -1.16081000     -3.69344000      1.91200000
 Ni     -3.16523000      3.10160000     -0.09872190
 Ni      1.75217000      2.95761000      0.52893200
 Ni     -2.45701000      2.55188000      2.36743000
 Ni     -2.68397000     -0.37119700      3.73500000
 Ni      0.55642500      1.79719000     -4.36896000
 Ni     -0.74124900      1.68071000      0.55936300
 Ni     -3.43855000     -2.20778000      1.36996000
 Ni     -0.61365100     -1.82620000      4.09102000
 Ni     -3.73393000      1.23355000     -1.85814000
 Ni      1.19309000     -2.48571000      2.15378000
  C     -1.07879000      3.63446000     -4.20756000
  O     -1.85882000      4.64000000     -4.40944000
  C      2.73780000      4.90227000      1.72917000
  O      3.47978000      5.69660000      0.99349700
  C     -3.46322000     -1.78255000      4.77407000
  O     -4.63914000     -1.94913000      5.26702000
  C      4.68693000     -1.60026000     -2.29339000
  O      5.93519000     -1.89826000     -2.51817000
  C      2.80710000      2.70481000     -4.69821000
  O      2.91883000      3.77138000     -5.39608000
  C      1.16195000     -3.03703000      4.45677000
  O      1.47854000     -3.98516000      5.27968000
  C     -0.25074600      3.22834000     -5.32118000
  O     -0.08832680      3.64484000     -6.53063000
  C      4.14731000      0.49566000      4.36942000
  O      4.55013000      0.42649800      5.58337000
  C      1.87237000     -3.24093000     -4.46159000
  O      1.82063000     -4.33574000     -5.14068000
  C      3.79442000      4.36935000     -1.33097000
  O      4.78546000      5.14164000     -1.18440000
  C     -4.04451000     -4.68100000      0.85582800
  O     -4.55561000     -5.56078000      1.65121000
  C     -2.25281000     -5.13854000      0.75042600
  O     -2.09125000     -6.42749000      0.91825000
  C      3.32844000      4.23942000      3.09484000
  O      3.29917000      4.98128000      4.16051000
  C     -4.82016000     -3.48918000      0.25931800
  O     -5.93256000     -4.04109000     -0.04408960
  C      2.14960000     -1.97296000     -5.24641000
  O      2.37681000     -2.18719000     -6.49616000
  C      3.43749000     -3.66750000      2.36709000
  O      3.98002000     -4.63968000      3.01951000
  C      3.85089000      1.67842000     -4.57181000
  O      4.99167000      1.79528000     -5.15929000
  C      1.80612000     -5.80248000     -0.94248400
  O      2.13593000     -7.01675000     -0.61771900
  C     -5.79665000      1.98767000     -1.73460000
  O     -6.79442000      2.74847000     -1.99048000
  C      2.32591000     -5.25848000     -2.17350000
  O      3.06692000     -5.80339000     -3.05699000
  C      1.26303000      5.22070000      2.18366000
  O      1.33886000      6.42682000      2.59848000
  C      0.96716700     -5.33938000      2.23638000
  O      1.54181000     -6.42007000      2.67575000
  C     -5.43914000      1.26787000      0.90904200
  O     -6.26975000      0.69660100      1.71762000
  C     -2.93957000     -4.74928000     -0.64589100
  O     -3.62017000     -5.35067000     -1.53527000
  C     -2.50230000      4.88781000     -1.56716000
  O     -2.99752000      5.87965000     -2.27114000
  C     -2.07336000      4.83437000      2.76680000
  O     -2.59804000      5.92014000      3.18834000
  C      4.93859000      1.03542000      3.29525000
  O      6.18144000      1.33269000      3.47993000
  C      4.33879000      3.47503000      2.22741000
  O      5.47176000      4.06507000      2.13574000
  C     -3.36009000      2.14451000     -4.42056000
  O     -3.52292000      2.88287000     -5.43859000
  C     -0.89445500      0.79059700      5.38166000
  O     -0.35019400      1.29963000      6.43683000
  C     -2.23037000     -2.48080000      5.15854000
  O     -2.21552000     -3.34857000      6.11810000
  C      2.00317000     -0.01355070     -5.67367000
  O      2.91815000     -0.02809920     -6.60006000
  C     -6.04737000      0.95273300     -0.68970000
  O     -7.03682000      0.12339600     -0.57195900
  C      0.70122000      0.72398300     -5.91606000
  O      0.13561000      0.81885000     -7.06582000
  C     -4.84099000      2.74622000      0.92706300
  O     -5.88114000      3.48715000      1.15273000
  C     -2.24552000      0.22554000      5.56944000
  O     -2.91820000      0.06645190      6.65122000
