#B3LYP/6-31+G(d) OPT FREQ

110, Energy = -12299.74362057 au

0 1
 Ni      0.19243900     -3.58700000     -2.17862000
 Ni     -1.37203000     -0.27519300     -1.21360000
 Ni      0.44491000     -4.53702000      0.41829600
 Ni     -0.35346800      4.44186000     -0.21746800
 Ni     -1.12001000      2.30143000     -1.94545000
 Ni     -3.16449000      0.47206200      0.78967800
 Ni     -0.96704600     -0.90643300      1.38081000
 Ni      0.04995810      3.66254000      2.45591000
 Ni      0.26043300     -0.89476200     -3.34572000
 Ni      3.42897000     -0.57679500     -0.76192600
 Ni      0.75005100     -1.66433000     -0.51351000
 Ni      2.40620000     -2.43482000     -2.33399000
 Ni      3.49405000      2.08099000     -1.26403000
 Ni      1.73106000     -0.36219300      3.75046000
 Ni      1.41233000      0.24454700      1.18818000
 Ni      2.76405000      0.16494000     -3.15997000
 Ni      1.32533000      3.62187000     -1.90682000
 Ni     -2.21087000     -2.15960000     -2.97548000
 Ni      3.54971000     -1.00769000      1.91064000
 Ni     -1.63173000     -3.05823000     -0.25640300
 Ni      4.04908000      1.46250000      1.19115000
 Ni      1.00868000      0.87674100     -1.36095000
 Ni     -2.02657000      0.40186000     -3.79632000
 Ni     -3.69384000     -1.34245000     -1.02717000
 Ni      2.00509000      2.07670000      3.20829000
 Ni     -0.36453400      1.07906000      3.33703000
 Ni      2.80171000     -3.27256000      0.34253700
 Ni     -1.16921000     -3.59532000      2.21086000
 Ni     -2.78672000      3.12201000     -0.19923600
 Ni      1.71395000      2.86436000      0.47360800
 Ni     -2.42496000      2.33795000      2.71654000
 Ni     -3.21815000     -0.37335500      3.34829000
 Ni      0.48650100      1.89039000     -4.09713000
 Ni     -0.71683400      1.67795000      0.61346700
 Ni     -3.37418000     -1.92254000      1.46979000
 Ni     -0.59249900     -1.39117000      3.93418000
 Ni     -3.49688000      1.09209000     -2.01853000
 Ni      1.23252000     -2.53349000      2.09866000
  C     -0.10906000     -0.08932640      5.54956000
  O     -0.28322000      0.07467420      6.85438000
  C     -4.03515000     -3.04563000     -4.11624000
  O     -5.08215000     -3.10941000     -4.86970000
  C      5.70825000      1.15767000     -0.27678100
  O      6.98721000      0.92095100     -0.31290600
  C      1.97609000      5.34722000     -1.05688000
  O      2.97589000      6.13156000     -1.18885000
  C     -3.77849000     -1.67852000      4.60403000
  O     -4.69553000     -1.56098000      5.52366000
  C     -3.39825000     -4.00066000     -3.34650000
  O     -3.65514000     -5.26338000     -3.23207000
  C     -3.26315000     -2.98136000      4.35103000
  O     -3.43083000     -4.13423000      4.88508000
  C      1.82756000     -6.43744000      0.50587300
  O      2.24271000     -7.44348000      1.16500000
  C      1.41614000      2.65497000      4.93448000
  O      1.62462000      2.44986000      6.19095000
  C     -5.36298000     -0.41855000      1.71271000
  O     -6.58738000     -0.43833900      1.32160000
  C     -2.91372000     -4.87503000      0.59256300
  O     -3.97734000     -5.51761000      0.84668400
  C      1.86768000     -6.26300000     -0.96048600
  O      2.25354000     -7.46115000     -1.33056000
  C      2.12251000     -4.40364000      2.94178000
  O      2.30002000     -4.43559000      4.23585000
  C      4.17161000      3.72842000      0.19884600
  O      4.94351000      4.77239000      0.24647900
  C      2.53047000      2.45715000     -4.91880000
  O      2.84201000      3.12434000     -5.96604000
  C     -0.40715900     -0.99704100     -5.57253000
  O     -1.07904000     -1.27744000     -6.63470000
  C      2.00348000     -5.14366000     -2.21459000
  O      2.50004000     -5.84624000     -3.27572000
  C     -1.78321000     -5.41928000     -0.22223900
  O     -1.89601000     -6.56824000     -0.76967900
  C     -2.53013000      2.68914000      4.57504000
  O     -3.24813000      3.18757000      5.50871000
  C     -2.43090000      4.89348000     -1.72680000
  O     -3.04665000      5.77514000     -2.40217000
  C     -1.18089000      2.58326000      5.23280000
  O     -0.98812900      2.31669000      6.48050000
  C      1.00082000     -1.13777000     -5.44211000
  O      1.86592000     -1.38486000     -6.36161000
  C     -4.45231000      0.93922200     -4.24138000
  O     -5.41677000      1.46758000     -4.90171000
  C     -4.09034000     -0.41060500     -4.66249000
  O     -4.80341000     -1.11981000     -5.45838000
  C      4.64111000      0.78410700      3.42950000
  O      5.66262000      0.95364400      4.19277000
  C     -0.36725100     -4.76894000      3.65397000
  O     -0.26912600     -5.20027000      4.85513000
  C      1.15657000      6.21314000     -0.02289120
  O      0.87658500      7.47327000     -0.26900100
  C     -1.66177000      2.71410000     -4.97385000
  O     -2.69726000      3.33156000     -5.42700000
  C      5.05696000     -0.66847700     -2.56483000
  O      6.02188000     -0.52236700     -3.40921000
  C      0.76134800     -5.33439000      2.80408000
  O      1.04156000     -6.60458000      2.84997000
  C      5.31689000     -1.25202000     -1.27448000
  O      6.39420000     -1.69706000     -0.75264000
  C     -0.35762500      3.22257000     -5.27150000
  O      0.02877160      4.18817000     -6.04424000
  C      3.17834000     -4.54228000      1.82126000
  O      3.85215000     -5.59428000      2.07718000
  C      0.14604200      3.52888000      4.83556000
  O     -0.14021500      4.68185000      5.31249000
  C     -5.00352000      0.07984760      3.07479000
  O     -5.91165000      0.48277500      3.89578000
  C      1.00923000      5.58563000      1.42823000
  O      1.65150000      6.48482000      2.07627000

