#B3LYP/6-31+G(d) OPT FREQ

14, Energy =    -51.75618671 au

0 1
 Co      0.09575001     -2.21303592     -0.94261148
 Co      1.13817687      0.76548217      2.20538372
 Co      2.31203470     -1.04320484     -0.56438131
 Co     -1.65423060     -1.66443111      0.89485883
 Co     -0.64432015      1.70644105     -1.53960734
 Co      0.01984747      0.09549965      0.10040928
 Te      0.70343844     -0.29181840     -2.22340889
 Te     -0.54371808      2.26620415      0.96542211
 Te      1.06796860      3.38227877     -1.07368230
 Te      2.29915220      1.22356905      0.14918957
 Te     -2.33677749      0.15697471     -0.69258142
 Te     -2.27595233     -2.48510887     -1.30694266
 Te      0.88627903     -1.78092746      1.36730108
 Te     -1.06764869     -0.11792297      2.66065079

