#B3LYP/6-31+G(d) OPT FREQ

14, Energy =    -51.83149891 au

0 1
 Co     -1.22203899     -2.27736061      0.82726352
 Co     -2.16072211      0.38262264      0.94368030
 Co      0.40031086      1.46329094      0.69081498
 Co     -0.83304342      0.28042671     -1.16896485
 Co      1.39520472     -1.18586122      0.69461479
 Co      1.60123085     -0.24971794     -1.87460343
 Te      3.04762636     -1.92969901     -0.89065929
 Te     -1.67274579      2.44376706     -0.25991593
 Te      0.08430762     -2.02071625     -1.23433149
 Te     -0.28550337     -0.55677592      2.25499713
 Te      0.82067748      2.03081392     -1.69283289
 Te     -1.19977458      2.07635643      2.45225183
 Te      2.70246408      0.77256007      0.03711809
 Te     -2.67799371     -1.22970681     -0.77943276

