#B3LYP/6-31+G(d) OPT FREQ

14, Energy =    -51.75441041 au

0 1
 Co      1.98956143     -3.05595908     -0.17429819
 Co     -2.01493984      2.23730165      0.32895929
 Co      0.06635794     -1.12504134      1.43648332
 Co      0.13387509      1.00022466     -0.01899612
 Co      2.26920995     -0.12655551      0.33903714
 Co     -1.46040486     -0.11597299     -1.64421137
 Te      3.45677728     -1.49229231     -1.19430557
 Te      0.12079960      3.14268465      1.05994455
 Te     -0.88364343      2.30640537     -1.81464378
 Te      0.06941246     -3.47338177      1.13641993
 Te      1.18513823      0.88559749      2.24713234
 Te      0.54105211     -1.29114230     -0.97207464
 Te     -3.43545632      1.28259441     -1.43531126
 Te     -2.03773966     -0.17446293      0.70586436

