14
Energy =    -51.79110632 au
 Co     -1.15247178      0.64631221      1.41976994
 Co      2.42330903     -1.81306836      2.10406233
 Co      0.36394265     -1.51820006      0.31244542
 Co      1.07090593      0.01411839     -1.59108632
 Co     -1.83507423      0.23486372     -1.33165095
 Co      1.48426300      0.53548646      0.97784313
 Te      2.89021735      1.43289212     -0.78946573
 Te     -2.05506107     -1.44640050      0.43830904
 Te      2.76227017     -1.25640654     -0.22769727
 Te     -3.20979162      1.39115563      0.37520699
 Te     -0.58072231     -1.75047912     -1.91839076
 Te     -0.07973270      1.83619137     -0.43012003
 Te     -2.40080853      2.49977041     -1.97465161
 Te      0.31875409     -0.80623575      2.63542582
