#B3LYP/6-31+G(d) OPT FREQ

14, Energy =    -51.81219036 au

0 1
 Co      0.56841754      2.08934107      0.40586672
 Co     -0.71604414     -2.90428364     -0.51507742
 Co     -1.19486419     -0.37448465     -1.22809013
 Co      1.20369159      0.69848854     -1.44802673
 Co      0.87407512     -0.87434284      0.53193874
 Co     -1.62994779     -0.05018825      1.19312485
 Te      0.34522722      0.67603107      2.37718109
 Te      3.10289570     -0.34128137     -0.34776957
 Te      2.77928527      2.32685808     -0.51867894
 Te     -1.70748222      2.33140787      1.13001793
 Te      0.76997419     -1.62183321     -1.84118980
 Te     -0.92516684      1.99650747     -1.55934794
 Te     -2.78377999     -1.76942669     -0.02720018
 Te     -0.68628143     -2.18279345      1.84725138

