14
Energy =    -51.78256905 au
 Co     -0.05862729     -1.74250717     -0.73666492
 Co     -0.07009393     -0.40172121      1.98341158
 Co     -1.27411460      1.18206138      0.29437785
 Co      1.86194456      0.21076316     -0.27317427
 Co     -1.43734854      2.05217195     -2.69450026
 Co      0.62941619      0.00395057     -2.62563586
 Te     -0.47605941      1.98995187      2.44026017
 Te      2.00507719      0.92614405      2.06342242
 Te      0.45285481      1.95713077     -1.19214111
 Te      1.64116546     -1.85125419      1.00494639
 Te     -1.28672013     -2.42301921      1.26880911
 Te     -1.60792976     -0.13861407     -1.68987688
 Te      2.13874542     -1.67707738     -1.79082355
 Te     -2.51830994     -0.08798051      1.94758933
