14
Energy =    -51.72019783 au
 Co      0.82257266     -0.88959578      0.00535433
 Co      0.71192756      1.69215788     -0.65577184
 Co     -1.80989178      2.51790071     -0.71054546
 Co     -1.56887784     -1.95186025     -0.30819842
 Co     -1.36081694      0.75147637      1.16709379
 Co     -0.10051253      3.05626013      1.38189187
 Te      0.05820276      3.98336813     -0.77733724
 Te      1.78944750      0.06006426     -2.08360283
 Te     -1.35677127     -4.01223839      0.96311058
 Te      1.01612110      0.96578013      1.64955281
 Te     -1.19155557      0.23504702     -1.18073407
 Te      0.56406892     -3.18242844     -0.80582264
 Te      3.05563685     -1.77099671     -0.55318380
 Te     -0.62955143     -1.45493508      1.90819293
