14
Energy =    -51.75193831 au
 Co      1.40839340     -1.09495178     -0.10583830
 Co     -0.97609229     -0.13518032     -1.15663678
 Co     -0.94411849     -1.99716291      1.04437312
 Co      2.77811118      0.04690087      2.52892067
 Co      0.85736624      1.36476195      0.43550111
 Co     -1.66968402      0.64512903      1.63209182
 Te     -2.52186347     -1.57527160     -2.38809488
 Te     -0.22000008     -2.52880459     -1.19938859
 Te     -1.42177567      2.07193009     -0.32166507
 Te      0.45487361     -0.38808347      2.12566382
 Te     -2.94342048     -0.87779342      0.22378146
 Te      3.13497259      0.54968406      0.22260784
 Te      0.90524283      3.28697058     -1.11294214
 Te      1.15799467      0.63187148     -1.92837412
