#B3LYP/6-31+G(d) OPT FREQ

14, Energy =    -51.81083253 au

0 1
 Co     -0.54873743     -0.19998373     -2.67732033
 Co     -1.27516115     -0.99324079      0.32368681
 Co     -0.14356531      1.29444311     -0.67933111
 Co     -1.49407887     -0.42621107      3.39078696
 Co      2.61799220      0.09830911     -2.09028152
 Co      1.23809810     -0.02252066      1.25850005
 Te      0.85353025      0.31421560      3.63548134
 Te     -1.86487660     -2.07001432     -1.77953266
 Te      2.25041997      1.63819382     -0.22695714
 Te      0.96044620      1.71433424     -2.79537731
 Te     -2.42835749      0.54776453     -1.20456172
 Te     -0.01393490     -1.93521432      2.18466376
 Te     -1.02299863      1.08381392      1.56617035
 Te      0.87122365     -1.04388945     -0.90592749

