#B3LYP/6-31+G(d) OPT FREQ

14, Energy =    -51.79183037 au

0 1
 Co     -1.08642147     -1.55779550     -1.54316217
 Co     -1.13296737     -0.92015149      1.59554530
 Co      0.43163153      1.58803091      1.11626856
 Co      0.28203980      1.48776822     -1.77204749
 Co      2.93060026      0.17565626     -2.38724224
 Co      0.92599236     -0.67273859     -0.37348314
 Te      2.29204035      1.33188205     -0.38482827
 Te     -0.04489735     -2.76251720      0.41391086
 Te     -1.50344919      3.05151309      1.21389979
 Te     -1.39543222      0.59647882     -0.28785898
 Te     -1.01221655      1.05319412      3.02431746
 Te      1.26897173     -0.53587137      2.02042563
 Te     -2.70190841     -2.16600407      0.17509656
 Te      0.74601654     -0.66944524     -2.81084187

