14
Energy =    -51.74004216 au
 Co     -2.02119227      1.06593870     -0.07088030
 Co     -0.79069905     -0.84287041     -1.42420952
 Co      0.71341978     -0.46871845      0.61376963
 Co     -1.78170275     -1.25570731      1.58406549
 Co      0.80945303      2.33257898      1.30785461
 Co      2.49816311      0.82512779     -0.53565367
 Te     -0.16613598      0.16945631     -3.54772373
 Te      1.62026067     -1.19665820     -1.62079760
 Te     -0.94240694      0.93813965      2.08313704
 Te     -2.61673264      0.48698854     -2.30897478
 Te      2.44389395      0.69050263      1.88896564
 Te      0.37123607     -1.61274329      2.73576745
 Te      0.19694008      1.48505653     -0.89537320
 Te     -0.33449705     -2.61709145      0.19005296
