14
Energy =    -51.82522693 au
 Co      0.71648578     -1.07827275     -0.69693003
 Co     -1.01709650      0.82091323     -1.76409829
 Co     -0.24034449      2.29848440      0.50817337
 Co     -0.96253012      0.04279207      1.19515087
 Co      1.85480488      0.53225198      1.08816364
 Co     -0.73361067     -2.91441913      0.54818556
 Te     -2.48800441      1.52073786      0.04253255
 Te      1.98915892      2.95749900      1.22128674
 Te     -1.85837356     -1.17989330     -0.69908581
 Te      0.07702934     -3.24746268     -1.71711438
 Te      1.30980211      1.25316304     -1.14990641
 Te      0.83894125     -1.53507934      1.73335001
 Te      0.32671246      1.37791593      2.76891515
 Te      0.18702502     -0.84863030     -3.07862298
