#B3LYP/6-31+G(d) OPT FREQ

14, Energy =    -51.75778995 au

0 1
 Co      1.40302274      2.42623780      1.55057938
 Co     -0.93059425      0.34817249     -0.53394503
 Co     -0.87896164      1.18308499      1.69757267
 Co      0.86859595      1.52014880     -1.96920726
 Co      0.36416622     -1.18001403      1.20450436
 Co     -0.40948629     -1.44648025     -2.05304512
 Te      1.00492466      0.42654935      2.99479670
 Te     -1.66842492     -2.02941146     -0.01960385
 Te      1.61816044      0.52434709      0.07270433
 Te     -1.52835941     -0.91140900      2.68183723
 Te     -2.60214016     -0.47115795     -2.05412894
 Te     -0.33281050      2.67795144     -0.16136524
 Te      1.75492707     -0.62671978     -2.74722155
 Te      1.33698009     -2.44129950     -0.66347768

