#B3LYP/6-31+G(d) OPT FREQ

14, Energy =    -51.69128211 au

0 1
 Co     -2.46689906      0.54600696     -0.84374210
 Co     -0.50834624     -0.79627311      0.40434270
 Co      2.53671012      1.22402536     -0.02214485
 Co      1.45870274     -1.08356443     -1.33473244
 Co     -0.00001846      1.30706954     -0.91376269
 Co     -1.48252818      1.92704721      0.82623167
 Te      0.09638079     -2.94468147     -0.61899712
 Te     -1.10349564     -2.62203631      1.89520903
 Te      3.77000695     -0.51677193     -1.17729902
 Te     -2.56481843     -0.21003980      1.58524662
 Te     -1.51943192      1.72200396      3.23923555
 Te      1.90493406      1.06435181     -2.40470836
 Te     -0.81042291     -0.68620063     -2.08250133
 Te      0.68922619      1.06906283      1.44762234

