14
Energy =    -51.77646959 au
 Co      0.03443127      2.02852953     -1.02693221
 Co      1.64395095     -0.71832991     -1.38399765
 Co      2.36935446     -0.92974231      1.57594440
 Co     -1.56203783      0.73372142      2.75967622
 Co     -2.83885684      0.42523641     -0.92096181
 Co     -0.34070255     -0.23121108      0.61868461
 Te      1.84241233      1.06517000      0.26874865
 Te     -0.68412109     -0.15697528     -1.84305410
 Te      0.76114244      0.25320277      2.87399880
 Te      1.68532694      1.36059026     -2.65529508
 Te     -1.70390863      1.91990735      0.63089891
 Te      0.57081518     -2.66389292     -2.38563296
 Te      0.88353645     -2.33850919      0.30979094
 Te     -2.66134310     -0.74769706      1.17813128
