14
Energy =    -51.74757854 au
 Co     -1.20616547      1.94837079     -1.89224881
 Co      0.13881386      0.99876850      0.07702605
 Co      0.30473040     -0.45646442     -2.25160024
 Co      0.71275140     -2.40657503      1.04022697
 Co      1.07460976     -0.10630347      1.91401356
 Co     -1.68496889      0.08704148      1.42649290
 Te      1.81526130     -0.72285625     -0.35513302
 Te      0.74704673      1.67808098     -3.34155160
 Te     -1.84956549      2.34111071      0.46071918
 Te      1.88932741     -2.05432004      3.14750155
 Te     -0.74418952     -1.52531836      2.91254633
 Te      0.76799887      3.05260199     -0.98795124
 Te     -0.19335798     -2.61248508     -1.19705716
 Te     -1.77229241     -0.22165179     -0.95298448
