14
Energy =    -51.77988412 au
 Co      0.87590195     -1.00930109     -1.11007547
 Co     -0.25352267     -0.06812879      1.88157725
 Co      0.20814828      2.08817536     -2.43270726
 Co     -1.49266352      0.07809812     -0.60937981
 Co     -0.17040122     -2.60316111      0.90338074
 Co      2.11452965      1.04996427      1.71751402
 Te     -2.01211687      1.55341936      1.30130133
 Te     -1.26794085     -2.31741406     -1.23017574
 Te     -2.25443840     -1.35188305      1.26918349
 Te     -0.55873802     -0.13810170     -2.93796615
 Te      0.23517054      2.14691306      2.79628254
 Te      1.77593859     -1.27639425      1.15820717
 Te      0.63362303      1.27974846     -0.20314191
 Te      2.16650952      0.56806542     -2.50400022
