#B3LYP/6-31+G(d) OPT FREQ

14, Energy =    -51.80303406 au

0 1
 Co      1.00077944      1.87771154     -2.38957568
 Co     -1.72457433      1.27879529      0.75784473
 Co      0.95404629      1.61038734      0.70677678
 Co     -0.66109869      0.28572869     -1.25654091
 Co     -1.57118782     -1.38567871      1.31633760
 Co      1.07756528     -1.13607867      0.83799919
 Te      2.51562917      0.33601383      2.09398467
 Te     -2.86212454     -0.44255870     -0.49321621
 Te      0.50603041     -0.39173688     -3.23508633
 Te     -0.48441273     -2.12047714     -0.76697853
 Te      0.05208710     -3.14799025      1.73607216
 Te     -0.56397454      2.71814156     -0.78576055
 Te     -0.24955645      0.33915568      2.42931132
 Te      2.01079141      0.17858642     -0.95116825

