#B3LYP/6-31+G(d) OPT FREQ

14, Energy =    -51.66351712 au

0 1
 Co      1.86948053      1.52458167     -0.64770089
 Co     -0.30050183      0.40664618      0.52823058
 Co     -1.39102853      0.86947420     -1.86610483
 Co     -1.24175535     -1.48110974     -2.64712737
 Co     -0.05082304     -2.36949908     -0.37686823
 Co      1.84055577     -1.18643800      0.39015110
 Te      0.72246906     -0.41053370     -1.63412175
 Te     -2.10420621     -0.96241276     -0.35491706
 Te     -1.07190701      3.79713536      1.70795085
 Te     -1.85049649     -3.50070424     -1.48808791
 Te     -0.73026627      1.34199314      2.75853046
 Te      1.86215257      0.90293926      1.73570504
 Te     -0.29836385      2.60406450     -0.62215067
 Te      2.74469065     -1.53613678      2.51651067

