14
Energy =    -51.77759742 au
 Co      0.63935345      0.57481574      1.23749858
 Co      2.44198775     -1.34265227      1.89415896
 Co      1.24313997      1.46736987     -1.31333971
 Co      0.58274205     -1.66319462     -0.31515075
 Co     -1.12883018      0.48385147     -1.30695376
 Co     -2.56442018      1.47905823      0.64597141
 Te      0.54182119     -0.69710971      3.27990051
 Te     -3.45478838     -0.12869013     -0.92817977
 Te      2.54784286     -0.14121745     -0.13829154
 Te     -0.33534216      1.86162535     -3.13608769
 Te     -1.42514978     -0.77072894      0.80140773
 Te     -0.44088138      2.41110075      0.10223839
 Te      0.60431065     -2.95301693      1.73582152
 Te      0.74821414     -0.58121136     -2.55899389
