#B3LYP/6-31+G(d) OPT FREQ

14, Energy =    -51.78925246 au

0 1
 Co      1.83204416      0.01033708      1.06900556
 Co     -1.08618323      0.99905525     -2.07585732
 Co      0.20318447     -1.21407089     -1.43701133
 Co     -1.51389488      1.43040677      2.11404224
 Co     -1.72313426     -0.47433778      0.29960491
 Co      0.01017203      1.30166765      0.16329146
 Te     -1.06194294     -2.77370161     -0.05034135
 Te      1.35346347      0.85728404     -1.76878342
 Te      2.10966933     -2.04808491     -0.22738086
 Te     -2.33508865      1.80697510     -0.14732912
 Te      3.71853114      0.12947624     -0.46811413
 Te     -2.17096358     -1.22766825     -1.99326535
 Te     -0.22461958     -0.67430088      2.17327794
 Te      0.88876250      1.87696221      2.34886077

