#B3LYP/6-31+G(d) OPT FREQ

14, Energy =    -51.86759260 au

0 1
 Co     -0.99086072      0.94949075      0.13237211
 Co      1.13930450      0.52651959      1.70054893
 Co     -1.59403334     -1.30159493      0.96545270
 Co      1.82516716      1.38409867     -0.47595481
 Co      0.56844548     -1.23374864     -0.23649481
 Co     -0.84762594     -0.24835750     -2.11553966
 Te     -1.35635022     -2.45776232     -1.17740542
 Te     -2.92319476     -0.26379731     -0.80702125
 Te      2.82574499     -0.62704557      0.41927003
 Te     -0.05092493      2.06019299     -1.85690231
 Te      0.48965982     -1.75603971      2.16661184
 Te     -1.12541942      0.50538318      2.54878036
 Te      0.43544546      2.71964911      0.98483808
 Te      1.60464191     -0.25698829     -2.24855578

