14
Energy =    -51.78859304 au
 Co     -0.60842728      2.93942113      0.93864251
 Co     -2.08508166      0.23469213     -1.38754597
 Co      0.50526176      0.14076765      2.05047665
 Co      0.14283819      1.29949203     -0.79675848
 Co      2.10507652     -0.06375916     -0.15828067
 Co     -0.49217430     -1.33048355      0.09561961
 Te     -1.74952540     -2.10853784     -1.80782402
 Te     -0.99455185     -1.74924498      2.46153755
 Te     -1.81408034      2.63834874     -1.17442159
 Te      2.88653881     -2.03179601     -1.30473226
 Te      0.58452132     -0.70259707     -2.12802106
 Te      1.54052372     -1.99488963      1.24507885
 Te      1.61353370      2.01520459      0.97492897
 Te     -1.63445319      0.71338198      0.99129991
