#B3LYP/6-31+G(d) OPT FREQ

14, Energy =    -51.74678348 au

0 1
 Co      0.53698825      1.22445233      0.00150722
 Co      1.23968817     -1.19549910      0.44138576
 Co     -2.58387565     -1.63274647     -0.11803298
 Co     -0.77163859     -1.00821889      2.10341876
 Co      2.42573971      2.42534852     -1.56860455
 Co     -0.48252132     -0.71706213     -1.12645272
 Te      1.10450279      0.52287126      2.24054929
 Te      2.81748691      0.35247187     -0.43759518
 Te     -1.43570764      1.02043477      3.27829467
 Te     -1.79831841      0.56566752      0.54285872
 Te      0.13919187      3.17840751     -1.37656149
 Te     -0.55431951     -2.83496566      0.56137486
 Te      0.83415042      0.75565462     -2.49137453
 Te     -1.47136702     -2.65681614     -2.05076783

