#B3LYP/6-31+G(d) OPT FREQ

14, Energy =    -51.74033841 au

0 1
 Co     -1.65933946      0.79707585     -0.61831634
 Co     -0.14237641     -0.71369672      1.16481315
 Co      1.55556506      1.30456529      0.24450732
 Co      0.68146935     -0.24301789     -1.76436953
 Co     -3.29080547     -0.89628245      0.03775108
 Co     -2.26169323      0.34714351      1.94501007
 Te     -0.54685122      1.91452124      1.30307690
 Te      2.05866297     -1.07007744      0.24358329
 Te      2.60506213     -1.56743066     -2.51543296
 Te      2.71262871      1.11455886     -1.93075043
 Te     -2.07592030     -2.08054928      1.74129993
 Te      1.45624094      0.48868975      2.60131127
 Te      0.07861154      2.18474689     -1.55023785
 Te     -1.17125459     -1.58024697     -0.90224590

