14
Energy =    -51.66444535 au
 Co     -1.07182374      0.58389406      1.47203695
 Co      4.53205825     -1.29893308     -0.12762065
 Co      1.00716284     -0.85569517      0.92223726
 Co      2.59462421      0.40330650     -0.55224730
 Co     -4.30477958      0.68344858     -0.74032498
 Co     -2.49442657     -1.02359163      0.16538716
 Te     -3.15789399     -0.91545656     -2.11664207
 Te     -3.49717660      0.77152293      1.50683905
 Te      1.07805162      1.57456883      1.05212321
 Te     -1.82490060      1.17342615     -0.81201207
 Te      0.89973758      1.73864190     -1.66580104
 Te      4.81759175      1.01478634     -0.27128798
 Te      2.35016015     -2.01972182     -0.61789456
 Te     -0.92838531     -1.83019701      1.78520702
