#B3LYP/6-31+G(d) OPT FREQ

14, Energy =    -51.79202863 au

0 1
 Co      0.15605135     -0.08565835     -1.54149285
 Co      0.49973525      1.83796020      0.18745495
 Co      1.80493312     -2.14897340     -0.74856828
 Co     -2.27536139      2.19931116      1.09766532
 Co     -1.65070169     -0.18709703      0.47523817
 Co      0.62831675     -0.80459570      1.26244718
 Te     -3.03853684      0.26877323      2.35505213
 Te      0.92645368      2.14896231     -2.20903688
 Te      2.72951302     -1.92568852      1.47298846
 Te     -1.57707568      1.65413426     -1.15559404
 Te      0.57366885     -2.12883770     -2.83307891
 Te     -0.40804094      1.12308781      2.32973524
 Te      2.28285959      0.23728263     -0.28516732
 Te     -0.65181506     -2.18866088     -0.40764317

