#B3LYP/6-31+G(d) OPT FREQ

14, Energy =    -51.79201208 au

0 1
 Co     -1.41776706     -1.73783903      2.16691682
 Co     -2.19916293      1.28459622     -0.20561752
 Co      0.66268723      1.09760227     -3.02767911
 Co      1.99818531      0.14015056     -0.00754655
 Co     -0.28475339      0.34175560      1.17885993
 Co     -0.17902782     -0.72437903     -1.36900779
 Te      3.10958748     -1.07838636      1.81661056
 Te      1.73852061      1.24956269      2.14437630
 Te     -2.45950019      0.53494215      2.15279037
 Te      0.26340135      1.75804129     -0.69958801
 Te      0.62665908     -1.84822370      0.73993564
 Te      2.05829326     -0.67222439     -2.25685497
 Te     -1.71153680      0.79969120     -2.55619652
 Te     -2.20558613     -1.14528945     -0.07699914

