14
Energy =    -51.75310646 au
 Co     -1.98066521      3.06420270      0.00368164
 Co     -0.89425865     -1.30850285      1.76357541
 Co     -0.51729534      1.29655334     -1.51832916
 Co      2.22817351     -1.57143467     -1.29817975
 Co      2.26416374     -1.62518072      1.58096629
 Co      0.64138443     -0.20636341      0.18731475
 Te      0.93252275      0.11848620      2.60602541
 Te      0.65195186     -2.63635333      3.13533057
 Te      1.92764606      0.88026863     -1.53527638
 Te     -1.37400848      3.40489127     -2.31512934
 Te      0.53253405     -2.66710419      0.22899149
 Te      0.02680476     -1.00322811     -2.18002562
 Te     -2.99409383      1.36627307     -1.50821669
 Te     -1.44485963      0.88749206      0.84927136
