#B3LYP/6-31+G(d) OPT FREQ

14, Energy =    -51.80888944 au

0 1
 Co     -0.26682244      1.42750672     -0.48365121
 Co     -1.88901065     -0.73016325      0.37360903
 Co     -1.33679309     -0.53562864     -2.38206244
 Co      0.21931023     -2.84000501      1.07938913
 Co      2.33065996      0.04322040     -0.26790890
 Co      0.66037327     -0.37417732      1.61384750
 Te     -2.65525513      1.05907863     -1.08567090
 Te     -0.63769594      1.72664032     -2.91505896
 Te     -1.27963855     -1.61078956      2.52975354
 Te     -1.25227211      1.13322870      1.79386688
 Te      2.46497649     -1.96345316      1.02141040
 Te      1.89524907      2.01347871     -1.63557313
 Te      1.49844463      1.89305124      1.13374130
 Te      0.24847430     -1.24198777     -0.77569223

