#B3LYP/6-31+G(d) OPT FREQ

14, Energy =    -51.76677177 au

0 1
 Co      0.32775218      0.47954277      2.06194075
 Co     -1.40811844     -1.02061902     -0.39577780
 Co     -1.74559145     -1.83596684     -2.73248999
 Co      0.55092606     -0.57468618     -2.39096803
 Co      0.91517512     -1.10849866      0.26373188
 Co      0.04633834      1.27402398     -0.59105651
 Te     -1.82034332      0.98570896      0.94608622
 Te      2.28686302      0.49737054     -1.15074564
 Te     -0.94220668     -1.55248824      1.88696408
 Te      0.03187149     -2.70541304     -1.37370808
 Te      2.67984741     -0.01446916      1.55124558
 Te     -0.59355017      2.54671676      3.04702599
 Te     -1.63528755      0.52719290     -2.21350953
 Te      1.30632397      2.50158521      1.09126110

