14
Energy =    -51.80990757 au
 Co      2.31081095     -1.51766354     -0.59350416
 Co      0.42083037     -0.12654674     -1.55057861
 Co     -1.14653128      0.96123806      0.55289190
 Co     -0.02311380      1.05629401      2.82385710
 Co      1.60758896      1.92418609      0.48810939
 Co     -0.87535979     -1.69636963      0.31494498
 Te     -1.97404761     -0.21038756     -1.43083506
 Te     -0.04744478      2.25028374     -1.26183038
 Te     -0.28634522      3.05911363      1.47272785
 Te      0.36757710     -2.54493388     -1.66310378
 Te     -1.68022061     -0.63064914      2.32753523
 Te      2.64866362      0.79529710     -1.37120914
 Te      0.98191578     -0.34113729      1.06552260
 Te     -2.30432371     -2.97872486     -1.17452792
