14
Energy =    -51.79043167 au
 Co      0.13792811      2.05326831      2.50337802
 Co      0.59607882      1.74907697     -0.84048868
 Co     -0.69263480     -3.71099678     -1.11391822
 Co     -0.32895178     -1.62211001      1.47782238
 Co      1.02384952     -0.91108143     -1.00041159
 Co     -1.31246843      0.59272145      0.63575120
 Te      2.78770275      0.77534880     -1.36572573
 Te     -1.35633069     -1.45326075     -0.70927562
 Te     -0.89967669      3.07145255      0.55702329
 Te      1.15908182     -3.00699807      0.22220966
 Te     -1.12091474      0.02360881      3.00108629
 Te      1.15580710      0.31667943      1.13298877
 Te     -1.77250931      1.60707585     -1.54796460
 Te      0.62303831      0.51521489     -2.95247515
