#B3LYP/6-31+G(d) OPT FREQ

14, Energy =    -51.75373157 au

0 1
 Co      2.41594349      0.78419377      1.48307779
 Co      0.02595518     -0.98938967      1.21904252
 Co     -1.58240085      0.83367238      0.06853754
 Co      0.85037664      1.06276353     -0.64642394
 Co      1.38844308      3.11843993      0.57371080
 Co      0.10084916     -1.20281802     -1.46826125
 Te     -3.47437161     -0.64854180     -0.39574228
 Te      2.10785062     -0.99611046     -0.11975293
 Te      0.09185269      1.43205637      1.74755733
 Te     -0.89519118      0.85336444     -2.22659916
 Te     -1.94348302     -2.49850671     -1.73261709
 Te     -2.22212246     -0.49487555      2.00600717
 Te      3.10463937      1.85917092     -0.56384639
 Te      0.03165890     -3.11341913      0.05530988

