14
Energy =    -51.76405948 au
 Co     -0.18449724     -2.51501218      1.36042700
 Co     -1.53036415      0.05420215      1.64083488
 Co     -0.61039316     -0.68605242     -0.59596752
 Co     -1.03850215      2.41785700      0.64527187
 Co      1.88918786     -0.13853956     -1.73514547
 Co      1.09725374      0.67626777      0.97448683
 Te     -0.17547398      1.63480312      2.81903936
 Te      1.29510659      3.14475502      1.04668322
 Te     -2.35251267     -1.92628356      0.54835611
 Te      2.20164491     -2.48104687     -2.38339657
 Te      1.65759818     -1.54555987      0.23227542
 Te     -2.53397665      0.83078631     -0.42115121
 Te      0.32135993      1.57548353     -1.18826214
 Te     -0.03643122     -1.04166043     -2.94345173
