14
Energy =    -51.80462521 au
 Co     -2.09172267      0.66560657      1.44198080
 Co      0.17032130     -0.41066921      0.93752385
 Co      1.58020457      1.53581633      0.78851611
 Co      2.41654768     -0.82311942      0.17112151
 Co      1.33405677      0.80987482     -1.60841738
 Co     -1.64118455     -0.53071792     -1.12733423
 Te      3.47673895      1.16906737     -0.58226928
 Te      0.57231310     -1.53235448     -1.32470510
 Te     -1.85888247     -1.77360421      0.98393141
 Te      1.14043936     -2.60703776      1.21282837
 Te     -0.08679088      1.46632736      2.52026754
 Te     -0.61992956      1.65335808     -0.30662040
 Te     -0.59857134      0.54110011     -3.03004490
 Te     -3.79354030     -0.16364765     -0.07677830
