14
Energy =    -51.78328192 au
 Co      0.26907054     -1.87677036      1.84009129
 Co      2.37976882     -0.16996261     -0.57209207
 Co      0.05699736      0.81615539     -0.39012389
 Co     -2.44095213      0.97870347     -0.19062398
 Co     -1.05864440      0.61202196      1.98836963
 Co      0.47270584     -1.86006695     -1.16064152
 Te     -0.99746898      2.74945440      0.74908446
 Te      2.25137324     -2.33324287      0.54321177
 Te      1.33772857      0.31972550      1.64965815
 Te     -1.27134442      2.10093882     -2.01358441
 Te     -3.23336632      1.73609933      1.98977345
 Te      2.71731677     -2.05002930     -2.16344117
 Te     -1.37480843     -1.16173969      0.26117501
 Te      0.89162351      0.13871293     -2.53085674
