#B3LYP/6-31+G(d) OPT FREQ

14, Energy =    -51.69025357 au

0 1
 Co      3.60113408     -1.30313121      0.01503102
 Co      1.05360858     -0.89963050     -0.53828338
 Co     -1.64774568     -0.10932607      0.51525614
 Co      0.51561037      0.23118093      1.79773889
 Co     -4.22437844      1.15362056     -1.02177656
 Co      2.71925961      1.55299374     -1.73943059
 Te      1.84479474     -1.77997441      1.58357778
 Te      2.76060072     -0.78829314     -2.17935939
 Te     -1.51630124     -0.52853585      2.89307687
 Te     -0.97151256     -0.83932963     -1.80412099
 Te     -3.48898317     -1.09965369     -0.71716253
 Te     -1.24578133      1.91052721      1.81207419
 Te     -1.87929034      1.67650889     -1.16228669
 Te      2.47898465      0.82304316      0.54566522

