#B3LYP/6-31+G(d) OPT FREQ

14, Energy =    -51.71062253 au

0 1
 Co      0.88838739      1.96105676     -0.54712352
 Co     -0.92442613      0.28864484     -0.30239818
 Co      1.92340149     -0.84910198      0.29644065
 Co     -1.17391010     -0.49898666     -2.68303321
 Co      2.60624028      1.51191460      2.43034451
 Co     -0.96712396     -1.45336330      1.49437875
 Te      3.11010593      1.25723844      0.10112653
 Te     -1.91103902     -1.92178218     -0.70579467
 Te     -0.98166347      1.88256736     -2.11410807
 Te      1.08235824     -0.14215959     -1.85553286
 Te     -1.33956963     -0.19242794      3.55212932
 Te      0.51291127      0.62966401      1.61148892
 Te     -2.79756363      0.19898314      1.28072088
 Te     -0.02810867     -2.67224749     -2.55863908

