#B3LYP/6-31+G(d) OPT FREQ

14, Energy =    -51.74734337 au

0 1
 Co     -3.47509130     -1.16073681      0.97148317
 Co      0.10422570     -1.36833171     -0.21042682
 Co     -1.75356445      1.95369759     -0.49806708
 Co      3.03934553      0.09101632      0.19637225
 Co     -2.19008737     -0.54281402     -1.20142769
 Co      0.83812518      1.00351781      0.47445163
 Te     -3.88797802      0.89187048     -0.23552899
 Te      4.10394042      1.72739290     -1.16237293
 Te     -0.14253912      0.62456785     -1.69680141
 Te      2.73761039      2.40041889      1.01700569
 Te     -1.36231001      0.13494365      1.11790303
 Te      1.50006880     -0.95697520      1.78750188
 Te     -1.93095876     -2.65775282     -0.08999251
 Te      2.41921300     -2.14081491     -0.47010023

