#B3LYP/6-31+G(d) OPT FREQ

14, Energy =    -51.79264080 au

0 1
 Co      1.03848192      1.42994012      1.39154230
 Co     -0.49625825      1.00164018     -2.70604827
 Co     -0.56645589     -1.85950454     -1.93974851
 Co      0.04845534     -0.19260378     -0.21691638
 Co     -1.69378614      1.74899041     -0.03805859
 Co      0.47139831     -1.28849637      2.17192611
 Te     -0.60893827      3.25631885      1.54661395
 Te     -1.14548216      0.48931981      1.96063433
 Te     -2.18487179     -0.13929638     -1.43234008
 Te      0.57250342      2.17460814     -0.86616779
 Te      1.70380075     -3.20033831      1.30646239
 Te      2.29174166     -0.55105042      0.68739797
 Te     -0.80040356     -2.41846093      0.42061670
 Te      1.36981468     -0.45106678     -2.28591415

