#B3LYP/6-31+G(d) OPT FREQ

14, Energy =    -51.75899497 au

0 1
 Co      1.21985177      2.11385487      0.82911734
 Co      1.57318895      0.57569638     -2.05167951
 Co      1.97612252     -1.95964554     -0.32601711
 Co     -1.46771576     -1.02438222      2.21633547
 Co     -1.41804298      0.25382762     -2.00612913
 Co      0.14976815     -0.21071167      0.14002211
 Te     -0.10588349      2.04938605     -1.19239893
 Te      0.28301847     -1.50932309     -2.02022772
 Te     -2.27674133      0.17330494      0.25385048
 Te     -2.44885166     -1.92405536     -1.57661405
 Te      0.60640889     -2.15533209      1.64236074
 Te     -1.07548708      2.73721143      1.50811446
 Te      0.34885684      0.57243356      2.50476430
 Te      2.63550671      0.30773515      0.07850152

