#B3LYP/6-31+G(d) OPT FREQ

14, Energy =    -51.77270341 au

0 1
 Co     -0.26360239      0.43205431     -0.55899267
 Co      0.88582272     -0.76254842      1.69653596
 Co      1.08104404      2.40165289      0.99455043
 Co     -0.62460942     -2.01758191      0.34318767
 Co      1.85776825     -0.77189569     -1.79183258
 Co     -2.37270030     -0.42782557      0.92039957
 Te     -0.73570369      1.06334397      1.83056178
 Te     -0.28876784      2.88442360     -0.93700851
 Te     -1.15908057     -1.58939786      2.70844200
 Te      2.30225815      0.47817434      0.20617642
 Te      1.84825597     -2.34188053      0.08233743
 Te     -2.60941339      1.40717301     -0.59423802
 Te     -0.37304813     -1.64490196     -2.01112835
 Te      0.45177658      0.88920982     -2.88899111

