#B3LYP/6-31+G(d) OPT FREQ

14, Energy =    -51.75677247 au

0 1
 Co      2.22406501      1.42932976     -0.07480395
 Co      0.29747472     -0.05754680      1.62597671
 Co     -0.41168045      2.07032368     -0.13306171
 Co     -1.01835306     -0.93293145     -2.42329578
 Co     -1.83008522      0.05970518     -0.27620749
 Co      2.36616664     -1.63727203      0.12437847
 Te      2.72678097      0.05923402      1.84157372
 Te     -1.68166308      1.32293964      1.76980729
 Te     -1.60705635     -1.61273452      1.52979055
 Te     -2.57920376     -2.13600414     -1.00243428
 Te      1.11205547     -2.30949706      2.08817850
 Te     -1.41841788      1.45255214     -2.31976201
 Te      1.15714553      2.52065196     -1.93728905
 Te      0.66277146     -0.22875039     -0.81285098

