14
Energy =    -51.78193285 au
 Co     -0.81295362     -1.84144862     -1.68697928
 Co      0.41448986     -1.34571770      0.78167990
 Co     -1.08893682      1.11698171      1.62361940
 Co      0.79673710      0.98621028     -0.62987210
 Co      1.53135590      3.08455300      1.47295199
 Co     -1.21630722      1.97913976     -1.93367497
 Te      2.51243219     -0.71399418     -0.35027654
 Te      1.16127915     -3.05517659     -0.89154841
 Te     -1.41268547     -2.96219205      0.41877757
 Te     -1.52466885      0.05225715     -0.44984775
 Te     -0.43751410      2.96088170      0.13919597
 Te     -1.36209608     -1.13098266      2.50200628
 Te      0.12052828      0.14178454     -2.80119185
 Te      1.31833969      0.72770366      1.80515979
