#B3LYP/6-31+G(d) OPT FREQ

14, Energy =    -51.76640779 au

0 1
 Co     -1.34046997      0.21631565      0.63192608
 Co     -3.66901297     -1.28957226     -0.25471465
 Co      0.77497835     -1.50269947      0.01613454
 Co      1.16013171      1.09432391      0.10593972
 Co      2.82086600     -0.07170937      2.44196833
 Co     -1.74548007      0.45397053     -1.70459537
 Te      3.02464746     -0.49253994      0.07616316
 Te      0.58460920     -0.10986499     -2.05985751
 Te      1.65433271      2.46613248     -1.82252699
 Te      0.44681704     -0.02532896      2.16745566
 Te     -1.44437607     -1.85382136     -0.82735737
 Te     -0.82099995      2.40687285     -0.55943501
 Te     -3.48270246      1.07271957     -0.12234232
 Te      2.03665903     -2.36479864      1.91124175

