14
Energy =    -51.82567256 au
 Co     -2.42389850      1.99495311      0.70081541
 Co     -1.34871671     -0.16530406     -0.15608289
 Co      0.22627032     -1.11591472      1.45233005
 Co      0.35296841      0.84388772     -1.85791270
 Co      0.96317452     -1.76518765     -0.85466183
 Co      1.71798445      0.80535863      0.37977887
 Te     -1.11920732     -2.61095411      0.05824458
 Te     -1.59838002      0.30917115      2.26152560
 Te     -2.03763501      1.49812902     -1.77000382
 Te     -0.10885548      2.25852353      0.12320390
 Te      2.61608121     -0.15533154     -1.62834079
 Te      2.61110089     -1.38249488      0.89132852
 Te      1.09120447      0.75021640      2.71516420
 Te     -0.94209125     -1.26505259     -2.31538912
