14
Energy =    -51.78010220 au
 Co      1.26362193     -0.78569136      1.48296831
 Co      0.27101435     -2.25450059     -0.27362298
 Co      0.11850940      1.96812346      0.40098654
 Co      1.28042977      0.10294752     -0.74291939
 Co      0.78127154      0.09712172     -3.29520782
 Co     -1.29536855     -0.51858984      0.62962815
 Te     -0.23845198      0.83516556      2.48747336
 Te      0.40752534      2.04180252     -1.98104678
 Te      2.32365024      1.32727393      1.16862370
 Te     -3.02766670      0.37115692      2.12846008
 Te     -0.48008996     -2.30105362      2.01866300
 Te      1.73020431     -1.81927182     -2.13054058
 Te     -2.21190585      1.62340886     -0.15456661
 Te     -0.92274383     -0.68789325     -1.73889897
