#B3LYP/6-31+G(d) OPT FREQ

14, Energy =    -51.79286982 au

0 1
 Co      1.94984447     -1.98974436      1.30290000
 Co      0.22223406      0.46187659      1.81798833
 Co      0.69687347     -0.56092631     -0.60781728
 Co     -1.92381562     -0.77286608     -0.27371190
 Co     -0.81673759      1.51816559     -0.21935552
 Co      1.85032837      1.90153001     -0.89230345
 Te      0.18181722      1.00104792     -2.37075319
 Te      0.86715797      2.67636358      1.17071993
 Te     -3.14496206      1.27276938     -0.80026903
 Te     -0.82237137     -1.66896422     -2.22052987
 Te     -2.26384481      0.63057178      1.68850865
 Te      2.47887717      0.33227565      0.87015610
 Te     -0.47322734     -1.83847612      1.33686917
 Te      1.19782603     -2.96362341     -0.80240196

