#B3LYP/6-31+G(d) OPT FREQ

14, Energy =    -51.80869322 au

0 1
 Co      0.58097853      2.44603447     -0.01074929
 Co     -0.30499246     -1.68932003      0.44944195
 Co      1.55594717      0.33448744     -0.62915599
 Co     -1.27193363      0.29043501     -1.38638032
 Co     -1.79606727      0.92335282      0.83810094
 Co      0.55106038      0.20131685      1.74979937
 Te      0.46482485     -1.34305710     -1.95459242
 Te     -2.65794345     -1.19613598     -0.03905259
 Te      0.98301306     -3.57573020     -0.40653800
 Te      2.42313326      1.57403152      1.26359535
 Te      0.47429203      1.67957306     -2.35076409
 Te      2.17938145     -1.41922217      0.89279386
 Te     -1.49160962     -0.87393679      2.43640938
 Te     -1.69008430      2.64817112     -0.85290814

