#B3LYP/6-31+G(d) OPT FREQ

14, Energy =    -51.78522817 au

0 1
 Co      1.19786742      1.34193598      0.55393968
 Co     -1.23392867      0.46171537      0.91872768
 Co     -2.71200087      1.24719364     -1.21337864
 Co      2.89750590     -0.95900054      1.03265363
 Co      0.58406883     -1.46882719     -0.28515007
 Co      0.06008411      0.60782963     -1.78102457
 Te     -3.58803401      0.05170061      0.69287356
 Te     -1.70743163     -1.01563103     -1.09547772
 Te      1.66617523     -3.03043634      1.18123250
 Te      0.73934129     -1.50702940     -2.72132002
 Te     -0.74848393      2.50035533     -0.49620375
 Te      0.69006866     -0.56034399      2.08714309
 Te      2.40778108      0.07039410     -1.12136535
 Te     -0.25301340      2.26014383      2.24734999

