#B3LYP/6-31+G(d) OPT FREQ

14, Energy =    -51.78240602 au

0 1
 Co     -0.59230598      0.17396701      0.50925937
 Co      0.88573705     -0.01007678     -1.70252073
 Co     -1.37462917     -1.77027926     -1.02078913
 Co     -1.78964913     -0.58698769      2.62462200
 Co     -0.68043221      2.50052438     -0.24114112
 Co      1.64636634     -0.90457612      1.14757284
 Te     -0.48681103     -2.10735558      1.23537765
 Te      0.51810367     -2.29834181     -2.44823132
 Te      0.58048252      2.34167240     -2.35656157
 Te      0.46214190      0.43645563      2.84192107
 Te      2.64397669     -1.56415600     -0.95707832
 Te     -1.49590998      0.61236095     -1.68149503
 Te      1.48387766      1.39767268      0.20654146
 Te     -1.80094831      1.77912018      1.84252285

