14
Energy =    -51.76298754 au
 Co      1.51606304      1.82803301      0.27609383
 Co     -2.40563678     -2.65083515     -0.44030404
 Co      0.79825603     -0.30419006     -0.78589123
 Co      0.61930662     -1.94440192      1.05502675
 Co     -1.45682398     -0.39828105     -1.78017363
 Co     -1.07796685      1.68669617      0.49168566
 Te      1.03018709     -0.70778738      3.12404720
 Te      0.36673402      1.85993832      2.40347492
 Te     -1.43113589     -0.69431808      0.63172759
 Te      2.59659078     -0.30784095      0.82989532
 Te     -0.13583314      1.72282158     -1.77623191
 Te     -0.13559215     -2.48092627     -1.26991821
 Te      2.64554669      1.03828329     -1.73350447
 Te     -2.92969548      1.35280849     -1.02592776
