14
Energy =    -51.73496804 au
 Co      0.73176109      0.34202918     -1.86312385
 Co     -2.56048200      0.68394969      1.46719674
 Co     -1.71926217      0.68481588     -2.25934633
 Co     -0.83948571      0.01569947     -0.07987304
 Co      0.80840541     -1.96607435      1.52777361
 Co      2.38366430     -0.50151030     -0.12361551
 Te      1.10481847      1.49812013      0.24258725
 Te     -2.33899101      2.17335035     -0.48881168
 Te     -3.17201055     -0.47811506     -0.66173921
 Te      0.53039301     -1.85532418     -0.89793820
 Te     -0.11817301      2.57300155     -2.22640101
 Te      2.57610293     -0.45544258      2.29422652
 Te      3.01972648     -2.67365681      0.74785857
 Te     -0.40646726     -0.04084297      2.32120614
