#B3LYP/6-31+G(d) OPT FREQ

14, Energy =    -51.71041034 au

0 1
 Co     -2.73500816     -1.60510003     -0.36504777
 Co     -0.55557192     -0.43122156      0.42103924
 Co      1.31551490      1.28933515      0.52963409
 Co      3.53212007      0.12591987      1.28344281
 Co      0.50444379     -0.18836493     -1.98851405
 Co      1.50448712     -2.01166577     -0.19758752
 Te     -0.62670550     -2.18370074     -1.29517121
 Te      3.46387242      2.28265340      0.18112283
 Te      2.74964609     -0.09969315     -1.04109210
 Te      1.38484461     -0.74530966      1.86085681
 Te     -0.58257647      1.68098599     -0.88441644
 Te     -2.43303549     -0.78443941      1.90289362
 Te     -3.18716436      2.47068716     -0.66855268
 Te     -4.33486712      0.19991370      0.26139237

