#B3LYP/6-31+G(d) OPT FREQ

14, Energy =    -51.80808241 au

0 1
 Co      0.43950154      0.41209582      1.68748220
 Co     -0.23200352      1.40981278     -0.79857432
 Co     -1.97068522     -1.08591801     -1.88446176
 Co     -1.22695887     -2.82489715      0.26025743
 Co      0.57852145     -1.28694587     -0.54959822
 Co      2.64746929      2.15980393      1.49012266
 Te      0.41973178     -1.99018959      1.81024355
 Te      2.00134511      0.64399866     -0.24214167
 Te      1.25190851      1.82286029      3.45490270
 Te     -2.30170808      1.30937564     -2.02813863
 Te     -1.54668626     -0.36457858      0.41860630
 Te     -0.44653560     -2.93766882     -2.02595386
 Te      0.07373535     -0.10793922     -2.69743609
 Te      0.31236454      2.84019013      1.10468971

