#B3LYP/6-31+G(d) OPT FREQ

14, Energy =    -51.77214837 au

0 1
 Co      2.42412973     -0.65550891      1.60635244
 Co     -0.40924263      1.71585865     -0.89842718
 Co     -0.92118464      1.03819925      1.78474071
 Co     -1.64589330     -1.92121234      1.07369658
 Co     -1.35863953     -0.87747239     -2.23812237
 Co      0.24119791     -0.56310872      0.07194338
 Te     -0.43306510     -2.71018420     -0.93517919
 Te      1.75457998      2.59528916     -1.59661021
 Te      1.33788274      1.43536409      0.93236459
 Te      0.15165035     -1.01933164      2.47565360
 Te     -2.18458572      0.12001353     -0.16434268
 Te      0.90607128      0.03617369     -2.18314272
 Te     -2.06621533      2.78246584      0.51763121
 Te      2.20331427     -1.97654599     -0.44655815

