#B3LYP/6-31+G(d) OPT FREQ

14, Energy =    -51.81071279 au

0 1
 Co     -0.99505894     -2.28861816     -0.97584658
 Co     -2.01836493      0.32658854     -1.77562453
 Co      0.61900402      1.65808472      0.68486599
 Co      0.52376734      0.20238980     -1.42521431
 Co     -1.85464463      1.94694541      0.99913867
 Co      1.14298516     -1.09842994      1.06556915
 Te     -0.35208153      2.49235068      2.80491225
 Te     -0.81232538      2.31811578     -1.17483767
 Te     -1.11308377     -0.28198550      0.42377473
 Te      2.57138992      0.48577011     -0.12710966
 Te     -0.13127975     -3.14437452      1.07405302
 Te      1.67664523      0.66243278      2.65277571
 Te     -0.66453584     -1.16585378     -3.07781300
 Te      1.40758309     -2.11341594     -1.14864379

