14
Energy =    -51.78318298 au
 Co     -2.34546533     -0.41620064      0.52167698
 Co     -0.54964160      1.52763981     -1.53800873
 Co     -0.37985250      0.84406099      0.95280335
 Co     -0.38009612     -0.81376494     -1.20186970
 Co      1.58855215      1.55500429     -0.42042887
 Co      1.37660355     -0.78213480      1.59296524
 Te      3.31436612     -0.04023634      0.30050690
 Te     -0.89918445     -1.13072953      2.36899927
 Te      1.33731425      0.31465627     -2.43508741
 Te      1.46580551     -2.11989748     -0.43195153
 Te     -2.56381797      0.10228817     -1.86270862
 Te      1.70090463      1.59093466      1.96263149
 Te     -2.31697425      2.01721753      0.07328949
 Te     -1.34851399     -2.64883797      0.11718214
