#B3LYP/6-31+G(d) OPT FREQ

14, Energy =    -51.82983967 au

0 1
 Co     -1.65672915     -1.26673550     -1.29695864
 Co      3.25684372      0.38725816      0.21160055
 Co      0.03079963     -0.61288936      1.34840524
 Co      0.69930438      1.45561339      0.04878985
 Co     -2.04612706      1.35421452     -0.09726162
 Co      1.03091985     -0.77643388     -0.97262376
 Te      2.24476441     -1.69034141      1.01339398
 Te     -0.60236345      0.82458164     -1.99656141
 Te     -0.85556774      1.61588871      1.94931391
 Te     -2.42410158     -0.79977279      0.96063443
 Te      2.23330510      1.15864080     -1.80562226
 Te      1.86822007      0.84275576      2.17253308
 Te     -3.55925902      0.17090554     -1.52634141
 Te     -0.22000916     -2.66368557     -0.00930192

