#B3LYP/6-31+G(d) OPT FREQ

14, Energy =    -51.81074121 au

0 1
 Co      0.64926344     -2.61113799      0.80877724
 Co     -2.65543562     -1.44552680     -0.36727180
 Co     -0.97345989      1.04858557     -1.02565781
 Co      1.83506476     -0.12206072     -0.51676207
 Co     -0.17426441     -0.17746602      1.37684856
 Co      0.46584459      3.20156600     -1.44628977
 Te     -1.57666005     -2.14853313      1.70337242
 Te     -2.40662769      0.61230185      0.91120031
 Te      2.80062235     -2.35502624     -0.32329649
 Te     -1.60864650      3.20227036     -0.13975907
 Te      1.00746255      1.06148015     -2.42329946
 Te      0.83087352      1.85110757      0.57907708
 Te     -0.33706378     -1.26957643     -0.94916431
 Te      2.14302674     -0.84798420      1.81222520

