14
Energy =    -51.70750390 au
 Co     -0.70876652     -1.52970387     -0.64961549
 Co      0.76137342     -0.59989646     -2.37947294
 Co      0.40522313     -1.62761728      1.88099367
 Co      1.98601478     -2.82294428     -0.59195091
 Co      0.92848199      1.45408376     -1.15285883
 Co     -0.99122939      0.49361580      0.64847718
 Te     -0.87059560      2.72148914      1.65574553
 Te     -1.29263744      0.59115139     -1.76017130
 Te      1.01350174      3.65060696     -0.08541249
 Te      1.48664105     -0.56223156     -0.00178399
 Te     -0.03635971     -3.57424048      0.43986179
 Te     -0.56474169      0.28160059      3.03838834
 Te     -0.13990623      3.16514763     -2.48878755
 Te     -1.97699953     -1.64106135      1.44658700
