#B3LYP/6-31+G(d) OPT FREQ

14, Energy =    -51.79120839 au

0 1
 Co      0.29755540      0.68191177      0.36406686
 Co     -1.96662042     -0.48659123     -0.26700327
 Co     -0.08976479      0.79848727     -2.09934549
 Co      1.27665519     -1.32726661      1.23569346
 Co      2.80753859      0.89085767      1.24632957
 Co     -1.45172487      1.32151678      2.01329680
 Te      0.87941579      0.75036946      2.71207718
 Te      0.28353296     -1.37567456     -1.06536046
 Te      2.09156807      1.35906056     -1.09483905
 Te     -2.36913271      0.04905544     -2.61600242
 Te     -1.60332980      1.93312604     -0.39109078
 Te     -1.06973626     -1.09350613      1.87602530
 Te     -2.25900998     -2.47941873     -1.64955694
 Te      3.17305282     -1.02192775     -0.26429076

