14
Energy =    -51.68188728 au
 Co      2.08097635      1.65520245      0.90400409
 Co     -0.82156012      1.02119987      1.28052042
 Co     -1.31453367     -0.69874243     -0.66002029
 Co      1.22098559     -1.07320696     -1.79845943
 Co      0.36349132      0.31358292      2.96780509
 Co      1.13535148     -0.76617693      0.75353647
 Te      2.64092493     -0.05873060      2.50007854
 Te      3.07632283     -0.07340998     -0.54200907
 Te     -3.12956038      0.61100244      0.37523185
 Te     -0.87653204     -2.01523248     -2.69626865
 Te     -3.14306968     -0.29006269     -2.22355902
 Te      0.44918107      1.11639629     -0.78912983
 Te      0.09049979     -2.67402534     -0.22184405
 Te     -1.77247747      2.93220342      0.15011388
