#B3LYP/6-31+G(d) OPT FREQ

14, Energy =    -51.68305389 au

0 1
 Co     -2.47731381      0.86838185     -0.85200965
 Co      0.52262752      0.57950023      2.91217326
 Co     -1.07316784      0.84681923     -3.48069750
 Co      1.52530846      0.33884825      0.71764351
 Co     -0.44845815     -0.52058097     -1.08527184
 Co      3.36840855     -0.04787668      2.88288265
 Te      1.65997935     -1.57244276     -0.67710185
 Te     -1.03668870     -1.31166971      2.88544834
 Te      0.52534440     -0.92159876     -3.26874385
 Te     -3.27171996      1.64091904     -2.97841037
 Te     -0.93970526      0.68675562      0.95052925
 Te      1.64442580     -1.61031273      2.27060462
 Te     -2.35579341     -0.96747394     -2.52058559
 Te      2.35675306      1.99073135      2.24353901

