14
Energy =    -51.72824053 au
 Co      1.07804516     -1.08836083      1.19786885
 Co     -0.53451812      0.86473476     -0.24186671
 Co     -2.21145508      1.96866517      1.28952927
 Co     -1.50397092     -0.05080130     -2.32519853
 Co      0.04804070      1.96731689      1.97626304
 Co      1.30192789     -0.50135049     -1.25705661
 Te     -1.11761051     -0.18777296      1.87651121
 Te      1.78112197      1.17947105      0.45472605
 Te     -2.90509505      0.56963814     -0.50831722
 Te      1.40802711      0.32057353      3.16699756
 Te      0.46840632      1.51044698     -2.35781371
 Te     -0.31359707     -2.98076510      0.66304034
 Te      2.07580529     -2.61269234     -0.47323223
 Te      0.42487230     -0.95910350     -3.46145133
