#B3LYP/6-31+G(d) OPT FREQ

14, Energy =    -51.71796414 au

0 1
 Co     -1.45982464     -1.85270035     -0.72193063
 Co      1.93017833     -0.66732395      1.09505916
 Co     -1.11675721     -0.08469591      0.99030282
 Co     -3.40670101      0.07195105     -0.67969525
 Co      0.69975638      1.47819858      0.64495450
 Co     -0.59576875      1.55993520     -1.60362464
 Te      0.43623616      0.34017751      2.74989475
 Te     -1.93151827     -0.22294151     -2.52052573
 Te      3.14274817      1.50470986      0.40397594
 Te      1.30533371      2.94392202     -1.14343378
 Te      0.52132685     -0.47187147     -0.95963983
 Te      0.01196443     -2.20309592      1.40868913
 Te     -3.03822494     -1.49540769      1.06082457
 Te      3.50125080     -0.90085741     -0.72485101

