#B3LYP/6-31+G(d) OPT FREQ

62, Energy =    -96.27356281 au

0 1
  N      1.86917775      4.94937340      6.32958514
  C      1.95486719      3.87764688      7.10406871
  N      2.03637886      2.79579754      6.34055391
  C      2.02607439      3.18410446      5.03796758
  C      1.92124858      4.53928573      5.03091444
  C      1.81125812      6.30461025      6.81169332
  C      3.21913554      6.86841925      6.96966426
  C      2.20881522      1.44322203      6.78735143
  H      1.89108413      3.90564339      8.17488050
  H      2.11851477      2.45825661      4.24886604
  H      1.88839413      5.23013456      4.21383063
  H      1.23134671      6.89971144      6.10085776
  H      1.27814480      6.26978283      7.76982874
  H      3.18916349      7.81525513      7.50262305
  H      3.68598301      7.02063964      5.99751704
  H      3.83213229      6.16514184      7.52751923
  H      2.26504041      0.79857833      5.90717983
  H      1.37524216      1.14539066      7.42342325
  H      3.13843856      1.37103064      7.35406970
  N      5.90879871      2.12568092      3.53729746
  C      5.51052788      1.57862852      4.67722572
  N      6.56943752      1.10004033      5.31730583
  C      7.67834927      1.35895621      4.56882836
  C      7.26373532      2.01249723      3.44851065
  C      5.04382814      2.80117653      2.60562477
  C      4.92360828      4.27240127      2.98829268
  C      6.57157047      0.49345846      6.61704838
  H      4.48441240      1.47511108      4.97213489
  H      8.64956869      1.06346144      4.91592044
  H      7.80607843      2.43176272      2.62072078
  H      5.47498487      2.70676597      1.60697900
  H      4.07419585      2.29721503      2.64224979
  H      4.13461488      4.74431648      2.40945766
  H      5.86306029      4.78222419      2.78852909
  H      4.69010896      4.35764451      4.04661500
  H      7.60527695      0.34924902      6.93207615
  H      6.05147388     -0.46486964      6.59245292
  H      6.06137950      1.16093535      7.31231845
  N      9.74462892      3.86935306      4.55051509
  C      9.71356235      3.43147737      5.80691056
  N      8.58953517      3.84388864      6.37830110
  C      7.88850881      4.58077182      5.47427106
  C      8.61546140      4.59634854      4.32337589
  C     10.76885506      3.60096224      3.56880279
  C     11.07255376      2.11148757      3.45793430
  C      8.17274387      3.51182861      7.70935149
  H     10.39342266      2.73850124      6.27439862
  H      6.91653996      4.96656326      5.70770126
  H      8.41670814      4.99577431      3.34511709
  H     10.38569280      3.97155289      2.61043229
  H     11.67442395      4.15345116      3.84387010
  H     11.94454156      1.96862973      2.82488201
  H     10.23063990      1.59792155      3.00366297
  H     11.26734035      1.66587710      4.43002957
  H      8.60485578      2.54708370      7.97294916
  H      7.08144492      3.46762108      7.72349176
  H      8.50979776      4.26972078      8.41889642
 Cl      2.76532903      0.31561220      3.57007994
 Cl     10.17202044      0.62623427      7.01871985
 Cl     -0.21286465      5.03468100      9.04518966
 Cl      8.67697742      4.36944895      1.09671829
 Cl      4.98100326      3.66233439      6.76407880

