62
Energy =    -96.27457288 au
  N      5.77446704      6.99832662      1.99804348
  C      5.24698638      5.89150705      1.48233750
  N      4.98062324      6.10047516      0.19682114
  C      5.34684609      7.36852017     -0.12586089
  C      5.84251249      7.93486314      1.00804611
  C      6.21582230      7.22879062      3.35718847
  C      6.14396307      5.98144588      4.21526351
  C      4.40531670      5.14453556     -0.70467134
  H      4.95094512      4.99199193      2.00097921
  H      5.16567515      7.75674096     -1.11248747
  H      6.21155462      8.92124604      1.19688739
  H      7.24862874      7.58826865      3.31621266
  H      5.60488722      8.04073338      3.76851728
  H      6.54386929      6.20670841      5.20110137
  H      6.74444509      5.18446809      3.78220288
  H      5.12294641      5.62745011      4.32186900
  H      3.73993249      4.49052400     -0.14202571
  H      5.19056260      4.54310230     -1.16549538
  H      3.87042222      5.68630409     -1.48610925
  N      4.91578589      6.90913099      8.05400975
  C      5.79547849      7.92386990      8.03381396
  N      5.46201882      8.75348493      7.03825998
  C      4.42265466      8.19844980      6.34080160
  C      4.08401566      7.04893144      6.96767479
  C      5.03760166      5.75186223      8.90091534
  C      4.58417911      6.04384864     10.32792643
  C      6.22804868      9.88712541      6.60725972
  H      6.43583577      8.18639151      8.84988266
  H      4.03572315      8.69055941      5.46730209
  H      3.33662073      6.31959353      6.73559965
  H      4.43520959      4.95097795      8.46801060
  H      6.09040088      5.45087056      8.88442277
  H      4.67088478      5.14511295     10.93207920
  H      3.54715936      6.37361755     10.33957030
  H      5.20142602      6.81978527     10.77332781
  H      6.20581678     10.67963197      7.35689507
  H      5.80594236     10.25057712      5.67097659
  H      7.26002572      9.57106742      6.44620259
  N      2.23972217      7.07284562      2.13461844
  C      2.59616647      8.30435056      1.78059180
  N      2.38612313      8.45347828      0.47732078
  C      1.87506867      7.29074749     -0.01370246
  C      1.78131342      6.42232177      1.03034189
  C      2.30124313      6.51935063      3.46254754
  C      0.96451457      6.68455921      4.17753693
  C      2.67925286      9.61673136     -0.30736918
  H      3.05510229      9.03231641      2.44005073
  H      1.69444764      7.16936040     -1.06277126
  H      1.49498831      5.39157295      1.07535154
  H      2.55610225      5.45686626      3.35152143
  H      3.08521950      7.04260566      4.01094347
  H      1.02071593      6.23874411      5.16611020
  H      0.17292547      6.18808366      3.62135516
  H      0.71601339      7.73896646      4.28446293
  H      1.77271173     10.19979971     -0.47690879
  H      3.07022038      9.27784457     -1.27443662
  H      3.41165280     10.22864452      0.21282295
 Cl      4.38598213     10.16105974      3.66212715
 Cl      3.51821811      7.70099900     -2.82622794
 Cl      3.17078040      3.62689957      2.19273786
 Cl     -7.70569049    -11.36584845     31.76632119
 Cl      7.82411331      6.82347119      7.27765820
