#B3LYP/6-31+G(d) OPT FREQ

62, Energy =    -96.24833774 au

0 1
  N      8.12970025      8.12001819      9.13248927
  C      8.31694533      7.66612500      7.89874550
  N      8.07628638      8.64830191      7.03733173
  C      7.71637099      9.75884339      7.74760592
  C      7.75350494      9.42525994      9.06594054
  C      8.31276908      7.38115178     10.35921204
  C      9.73532509      6.84615159     10.45671720
  C      8.18475576      8.51577046      5.61150237
  H      8.65900876      6.68914213      7.57820403
  H      7.47008684     10.68467327      7.27012263
  H      7.56552027      9.97479380      9.98171054
  H      8.09673207      8.08000025     11.18016108
  H      7.59729110      6.55500655     10.38321736
  H      9.84230718      6.27173845     11.37225766
  H     10.44039644      7.67180426     10.48391864
  H      9.96919655      6.21054892      9.60551064
  H      8.66711275      7.55629521      5.40218015
  H      8.78292754      9.32844568      5.20083607
  H      7.19644147      8.53151102      5.14963118
  N     11.10204912      3.53048604      7.91086190
  C     11.29409317      3.13441809      6.65607240
  N     12.29767448      3.82411136      6.12546118
  C     12.81518008      4.62937617      7.09554808
  C     12.06464891      4.45203734      8.21018661
  C     10.02291658      3.11624541      8.77280069
  C      9.94432283      1.59922655      8.88555520
  C     12.82500529      3.60057133      4.81344258
  H     10.65070189      2.47942181      6.10891914
  H     13.65268320      5.27106202      6.91585354
  H     12.13357277      4.91309543      9.17382718
  H     10.20082342      3.56181685      9.75486036
  H      9.09072711      3.52397069      8.36563497
  H      9.27471806      1.31993631      9.69550199
  H     10.93363993      1.19008223      9.07229549
  H      9.57993734      1.16202091      7.96093188
  H     13.02527531      2.52968361      4.71001403
  H     13.75130061      4.15841999      4.69556393
  H     12.10468130      3.92261654      4.06059376
  N     -0.44264502      5.16002259      0.38531381
  C     -1.50790791      5.41389056     -0.36662134
  N     -2.39167994      4.43619592     -0.20007311
  C     -1.88718305      3.53375577      0.68506905
  C     -0.66040862      3.98956347      1.05610836
  C      0.71352854      6.01761133      0.48128583
  C      0.73734765      6.75288873      1.81689076
  C     -3.67271603      4.30881790     -0.83661522
  H     -1.55748512      6.28495531     -1.01793046
  H     -2.46991475      2.66293042      0.95394226
  H      0.06137554      3.57143965      1.72671577
  H      1.61338769      5.40743966      0.36573840
  H      0.63867112      6.73935408     -0.34218790
  H      1.65852871      7.31991160      1.90198244
  H      0.67677940      6.05653729      2.65102511
  H     -0.09844041      7.44367058      1.87177194
  H     -4.28936312      5.17992990     -0.61937111
  H     -4.14830218      3.40072838     -0.44372705
  H     -3.54864156      4.22472350     -1.91591891
 Cl     -4.37432437      1.50420910      0.74928527
 Cl      9.61004297      5.49047932      6.05481727
 Cl      7.59231117     10.05318150     12.16755840
 Cl     12.72988471      0.98806078      6.90636554
 Cl     -0.57631912      7.94742375     -1.92080633

