62
Energy =    -96.26172460 au
  N      5.51580513      4.59427426      0.48957473
  C      5.02074457      4.57205800     -0.74758148
  N      3.99913601      5.42154861     -0.81476251
  C      3.84228682      6.00215334      0.41244267
  C      4.79403714      5.48311491      1.23264863
  C      6.63773839      3.82316893      0.96409481
  C      7.77254908      4.73477066      1.41670587
  C      3.22442251      5.65145173     -2.00092480
  H      5.34240904      3.99457776     -1.61663273
  H      3.07872267      6.72530926      0.61208582
  H      5.03378542      5.68857550      2.26380794
  H      6.30903700      3.21209569      1.80968061
  H      6.95390136      3.17084061      0.14701768
  H      8.62500756      4.13250027      1.71809673
  H      7.44634052      5.32899594      2.26854516
  H      8.07397054      5.39504271      0.60662325
  H      3.26510529      6.70383063     -2.28224899
  H      2.18524486      5.36508348     -1.83738177
  H      3.65772830      5.03468605     -2.79759519
  N      5.09556584      9.15496287      3.98403221
  C      4.89532303      8.95698547      5.28687703
  N      5.95594111      9.40448096      5.95937121
  C      6.80450919     10.00417930      5.07040488
  C      6.26938412      9.84253100      3.83590738
  C      4.19073202      8.79267164      2.92792942
  C      3.29446018      9.96928969      2.55686105
  C      6.11778170      9.41612890      7.38359474
  H      4.12409316      8.33791809      5.69426734
  H      7.72658105     10.44191994      5.39475293
  H      6.62541773     10.15174916      2.87486421
  H      4.78447309      8.45264387      2.07411691
  H      3.59090497      7.95452949      3.28634026
  H      2.49821746      9.64671032      1.89159542
  H      3.86916386     10.75275970      2.06856855
  H      2.86209447     10.37735099      3.46836141
  H      5.61128690     10.28942715      7.79913514
  H      7.18441282      9.44973454      7.61179083
  H      5.67178209      8.51880519      7.80948136
  N      9.23793543      6.77870965      4.40793619
  C      8.43246745      6.98239626      5.44486937
  N      8.59938709      6.00457430      6.32652032
  C      9.56245084      5.16355499      5.85259244
  C      9.96313454      5.64761964      4.64948520
  C      9.32932166      7.65051264      3.26635906
  C     10.27679134      8.81041125      3.55462726
  C      7.93182224      5.95172364      7.59267092
  H      7.72969102      7.78073654      5.52753225
  H      9.88231147      4.29804123      6.39571948
  H     10.69024308      5.27741801      3.95662102
  H      9.66928504      7.06265698      2.40982151
  H      8.32034643      8.01870778      3.06697203
  H     10.16132253      9.58957405      2.80743439
  H     11.31026112      8.47229271      3.55639961
  H     10.05232026      9.21925415      4.53750642
  H      8.16178846      6.87386010      8.13221584
  H      8.27832952      5.09000230      8.15817366
  H      6.85476887      5.88282330      7.43517352
 Cl      9.53695487      8.87340604      6.99566772
 Cl      1.94331589    -21.43533055     33.04230682
 Cl      5.16390765      3.50301488     -3.62971942
 Cl      6.13666104      6.17960964      4.14772796
 Cl      3.25020476     10.77133335      5.89112470
