#B3LYP/6-31+G(d) OPT FREQ

62, Energy =    -96.26644949 au

0 1
  N      8.01634312     -0.30216814      1.52987798
  C      7.02497949      0.08180590      2.33823230
  N      7.32946287      1.26979823      2.85960969
  C      8.54692189      1.65126558      2.38663375
  C      8.97836491      0.66784138      1.55216138
  C      7.99526198     -1.53929924      0.78523495
  C      8.59609085     -1.39560473     -0.60469322
  C      6.53892944      2.02395901      3.78862920
  H      6.08319668     -0.44714258      2.39654858
  H      8.95254029      2.61470835      2.63818097
  H      9.88607319      0.59667153      0.99118191
  H      8.53401959     -2.30763692      1.35125465
  H      6.93738914     -1.82541762      0.71340353
  H      8.46607499     -2.32998872     -1.14320133
  H      9.66016841     -1.16927289     -0.56569780
  H      8.08155163     -0.61073897     -1.15155579
  H      5.48268620      1.84591252      3.60408798
  H      6.78747886      3.08251778      3.65937930
  H      6.77657712      1.73174832      4.81321684
  N      7.93659218      8.07690081      2.18687677
  C      6.82371020      7.62232988      2.76174137
  N      5.99510862      7.19001137      1.81425499
  C      6.55704410      7.45084864      0.59747843
  C      7.77355857      7.99882878      0.82860731
  C      9.07476902      8.61830684      2.87756501
  C     10.24138115      7.63377388      2.85809766
  C      4.66670100      6.69235291      2.01903997
  H      6.70215278      7.44754132      3.80980158
  H      6.05393673      7.17866121     -0.30916920
  H      8.52814745      8.33897151      0.14988410
  H      9.35342866      9.56470665      2.40328099
  H      8.76030511      8.82856605      3.90151139
  H     11.03712139      7.97536449      3.51514602
  H     10.63738215      7.52697367      1.84979879
  H      9.89870160      6.65803315      3.19344036
  H      4.31262762      6.25516839      1.08470187
  H      4.01652014      7.51742145      2.31881413
  H      4.67133715      5.94323392      2.81187111
  N      5.30812160      2.37352152      0.47032129
  C      6.00354597      3.51059757      0.51882646
  N      7.11990750      3.36301015     -0.18839352
  C      7.09586630      2.12725083     -0.76748993
  C      5.96079405      1.50531447     -0.35671576
  C      4.00426947      2.12218348      1.03318908
  C      2.91827008      2.44700289      0.01173888
  C      8.08184194      4.40272198     -0.39671223
  H      5.80522235      4.34628898      1.15558748
  H      7.87412279      1.80314604     -1.42796817
  H      5.57809264      0.51752479     -0.52476883
  H      3.96332008      1.06393786      1.31011845
  H      3.88624368      2.75220165      1.91740184
  H      1.93981233      2.41797916      0.48243344
  H      2.94011321      1.72411461     -0.79935290
  H      3.09198404      3.43869706     -0.39993682
  H      7.61929499      5.19164923     -0.99275521
  H      8.95335070      4.00178200     -0.90911696
  H      8.36611302      4.81266507      0.57461644
 Cl      4.83582648      5.10817027     -1.18341950
 Cl      4.68199481     -1.38436295      1.02480345
 Cl     -0.73666848    -15.55525079     32.32860520
 Cl      8.06938919      4.79623148      2.93228860
 Cl      5.79515709      9.83445035      3.41531130

