62
Energy =    -96.26484253 au
  N      3.53846185      7.99678011      1.96851170
  C      4.79365650      8.04679857      2.41692756
  N      4.84664689      8.86656537      3.46275155
  C      3.60309165      9.40338331      3.64424934
  C      2.78293823      8.85891119      2.71211547
  C      3.09138410      7.24990166      0.82239257
  C      2.53903846      5.89201209      1.23998876
  C      6.04491303      9.17630604      4.18258922
  H      5.58680479      7.39576219      2.11670070
  H      3.40423426     10.12888650      4.40559956
  H      1.72999326      8.96650697      2.55197045
  H      2.31310301      7.83016465      0.32190274
  H      3.94483205      7.14932177      0.14722926
  H      2.24619793      5.31882449      0.36417634
  H      1.66652281      6.03572425      1.87592138
  H      3.29882427      5.33730786      1.78752704
  H      6.36322791      8.29451292      4.74282155
  H      5.85732447      9.99989869      4.86827567
  H      6.81658174      9.45751269      3.46416292
  N      5.10147460      3.73846787      7.17422142
  C      4.54546146      3.54248630      5.98406633
  N      5.36650857      2.82266093      5.23097480
  C      6.47973842      2.53902267      5.96539324
  C      6.31463714      3.11382313      7.18398330
  C      4.48718009      4.47726258      8.24504714
  C      3.51438804      3.58997866      9.01488130
  C      5.04779894      2.37098310      3.90988337
  H      3.59302111      3.90969676      5.67757255
  H      7.29270176      1.96360574      5.57247072
  H      6.95925407      3.13192812      8.03852025
  H      5.27653840      4.86088855      8.89694673
  H      3.96671943      5.32253133      7.78832958
  H      2.88891559      4.18883460      9.67037602
  H      4.05426693      2.85960643      9.61332328
  H      2.88382517      3.05153557      8.31046244
  H      4.13245849      1.77667584      3.96868463
  H      5.86311909      1.76662121      3.51895529
  H      4.88165001      3.23177058      3.26135860
  N      1.79631673      6.44549469      6.16392159
  C      1.90086302      5.85394490      4.97550767
  N      1.38745281      4.62872611      5.05850003
  C      0.86999798      4.46196522      6.31012153
  C      1.12613182      5.59813056      7.00370501
  C      2.25641570      7.77182108      6.47968919
  C      1.15540816      8.79609623      6.23227484
  C      1.30550010      3.65277666      4.01156333
  H      2.47360927      6.24319618      4.16078074
  H      0.41176465      3.54198208      6.60715265
  H      0.89236405      5.86644253      8.01326999
  H      2.57509979      7.78313089      7.52702280
  H      3.12317216      7.96623406      5.84479550
  H      1.54748597      9.80578298      6.31322743
  H      0.34940744      8.67215785      6.95261225
  H      0.75052669      8.64347105      5.23466058
  H      1.49880628      2.66954534      4.44679747
  H      2.04719616      3.87734076      3.24990479
  H      0.31446371      3.68045477      3.55621370
 Cl      5.90396905      9.49936491      0.66883361
 Cl      0.02036201      6.94617536      3.54414903
 Cl      4.96082602      6.07750202      5.09204992
 Cl      2.70202725      1.53749958      6.23756102
 Cl      9.64197710      6.87597740     32.26750083
