62
Energy =    -96.27521153 au
  N      5.56248875      3.55922449      5.73347500
  C      4.25081478      3.75436461      5.83769475
  N      3.65601275      3.20879100      4.78394950
  C      4.60921940      2.65110967      3.98801981
  C      5.81027095      2.86677991      4.58751999
  C      6.56240241      3.92998897      6.70293893
  C      6.64796773      2.87893983      7.80577435
  C      2.25511558      3.26370991      4.48591918
  H      3.74232085      4.32098538      6.61747942
  H      4.37055513      2.17671759      3.06096389
  H      6.81765626      2.65672036      4.28098581
  H      7.51703358      4.00165317      6.16936890
  H      6.28713196      4.89503496      7.13284117
  H      7.42863018      3.15127467      8.50892334
  H      6.88990149      1.90730258      7.38209978
  H      5.70283258      2.81088046      8.33995834
  H      1.74898783      3.82835464      5.26523045
  H      1.83957088      2.25714274      4.42687756
  H      2.13275454      3.75875380      3.51979782
  N      6.36780532      6.87416971      4.79054063
  C      5.22577455      6.56125342      4.17405921
  N      4.20478593      6.91457033      4.94915676
  C      4.69403250      7.45720252      6.09328820
  C      6.05147943      7.43684180      5.99256796
  C      7.69778250      6.70838809      4.25900798
  C      7.91946438      7.62105349      3.05924198
  C      2.81659742      6.74460116      4.63979868
  H      5.10381774      6.04313238      3.23328221
  H      4.04885865      7.74854082      6.89596720
  H      6.80255317      7.77192493      6.67805665
  H      8.40714340      6.95025140      5.05225967
  H      7.85991674      5.65816086      3.98333699
  H      8.90785611      7.43929486      2.64887221
  H      7.84812457      8.66929259      3.34775339
  H      7.17901892      7.42028526      2.28984602
  H      2.35387089      7.71267840      4.44526923
  H      2.33270407      6.28823096      5.50757615
  H      2.73530405      6.11664536      3.75469780
  N      7.29618866      3.66154163      0.91951213
  C      8.50402518      3.22149320      1.26273695
  N      8.40648337      1.95815670      1.66251572
  C      7.11206068      1.56006274      1.50326037
  C      6.41612529      2.62601883      1.03360332
  C      6.97659732      4.94877529      0.36003497
  C      7.01957588      4.88045568     -1.16402069
  C      9.52521147      1.16264812      2.06643808
  H      9.38588249      3.82048766      1.34572372
  H      6.79248509      0.56466870      1.73460584
  H      5.37909144      2.75440751      0.80237486
  H      5.98065250      5.22910551      0.71574177
  H      7.71683641      5.66372917      0.72361183
  H      6.96369164      5.87910400     -1.58856817
  H      6.18719493      4.29108412     -1.54024633
  H      7.94860549      4.40507319     -1.47348282
  H     10.26505391      1.18979047      1.26334304
  H      9.20438396      0.13922259      2.24738133
  H      9.95545150      1.58582654      2.97600879
 Cl      9.71626010      2.65849783     -0.98029961
 Cl    -28.09768887    -16.10900415     -0.08018542
 Cl      3.76944622      4.84154060      1.93010939
 Cl      8.93692687      3.66963547      4.33222233
 Cl      2.59784221      5.65111644      7.75370871
