#B3LYP/6-31+G(d) OPT FREQ

62, Energy =    -96.25522884 au

0 1
  N      9.59866825      3.82689233      2.63214554
  C      9.44520702      3.55331292      1.33800777
  N     10.51187910      4.00678816      0.66957900
  C     11.41673683      4.46832337      1.59030433
  C     10.84265407      4.36102430      2.81130602
  C      8.66797364      3.51422037      3.68352297
  C      9.06565107      2.21568428      4.37698181
  C     10.76081895      3.72822029     -0.71321660
  H      8.52991322      3.23413845      0.88599980
  H     12.37628860      4.84604629      1.30357509
  H     11.20008770      4.65244062      3.77557596
  H      8.65473945      4.35911233      4.37794631
  H      7.67837831      3.41112209      3.23257737
  H      8.28818446      1.90435623      5.06893852
  H      9.99755313      2.33970791      4.92384022
  H      9.20707251      1.44392409      3.62334181
  H     10.75302586      2.64091415     -0.84007893
  H     11.72950809      4.13040937     -1.00058517
  H      9.98023427      4.16487326     -1.33783435
  N      9.00792956      8.63933809      0.04274123
  C      8.46308009      9.18816176      1.12482285
  N      8.34998854     10.50153191      0.94151287
  C      8.77377064     10.78544006     -0.32029168
  C      9.19157419      9.62109307     -0.88161299
  C      9.24735945      7.22813424     -0.13470781
  C      7.93797189      6.44863116     -0.02601974
  C      7.64200384     11.40571979      1.79981091
  H      8.25067120      8.63484174      2.02163146
  H      8.73303072     11.77450458     -0.72726007
  H      9.58472568      9.42505605     -1.85791510
  H      9.71538928      7.09376447     -1.11282891
  H      9.93530145      6.89790321      0.64992093
  H      7.98418152      5.52811084     -0.59995932
  H      7.11397945      7.05803180     -0.38984763
  H      7.74893977      6.20893876      1.01577883
  H      6.57000527     11.25258431      1.64436995
  H      7.89888154     12.43306646      1.54973948
  H      7.88351092     11.21391691      2.84265426
  N      6.97764641      9.90420975      5.13010223
  C      6.94063998      8.75718769      4.45495596
  N      5.85393304      8.73769148      3.69275967
  C      5.17268201      9.90114040      3.89564861
  C      5.87857389     10.63421342      4.80153005
  C      8.00868145     10.32681510      6.05014789
  C      9.37894145     10.33147115      5.38276256
  C      5.50397345      7.69646450      2.77132683
  H      7.69935049      7.98966205      4.44842595
  H      4.26304019     10.11956631      3.37631881
  H      5.74206009     11.61829447      5.23036493
  H      7.73461691     11.33957164      6.37987104
  H      8.01268158      9.64829921      6.90770431
  H     10.13790858     10.55504048      6.12709913
  H      9.42132729     11.10265228      4.61775439
  H      9.60612942      9.36854329      4.92946986
  H      5.51610026      8.10094925      1.74835545
  H      4.50909957      7.31091965      2.99153559
  H      6.23943741      6.89942647      2.84935821
 Cl      6.64734895     13.30701432      6.33466969
 Cl    -10.70860386    -21.84369189    -19.47867058
 Cl      9.97137275      1.10982196      1.11336794
 Cl      5.84456256      9.27586553     -0.08523164
 Cl      9.23842812      6.87913915      3.30046443

