#B3LYP/6-31+G(d) OPT FREQ

62, Energy =    -96.24191606 au

0 1
  N      1.84675386      4.15678838      0.11522625
  C      2.38902045      3.03761741     -0.35605458
  N      1.76789069      2.69789322     -1.47850664
  C      0.80426964      3.62106165     -1.74263073
  C      0.85535454      4.54192966     -0.74231794
  C      2.29922981      4.85502541      1.29404957
  C      3.05861366      6.12233509      0.91669008
  C      2.02904912      1.55383499     -2.30554614
  H      3.18297969      2.51328056      0.15836820
  H      0.22137942      3.53673143     -2.65281100
  H      0.26597384      5.41984570     -0.57782985
  H      1.43299938      5.10219773      1.91416440
  H      2.96138982      4.16766790      1.83312747
  H      3.37963168      6.63559443      1.81824821
  H      2.43520839      6.79616581      0.33183101
  H      3.94009967      5.86633828      0.33497781
  H      1.49664785      1.70867100     -3.25511447
  H      1.65568455      0.64828288     -1.82688501
  H      3.09863838      1.44927081     -2.47708441
  N      1.35116385      1.50152943      4.18215439
  C      0.48442435      1.29972088      5.16943550
  N      0.86161995      2.01354647      6.22251433
  C      2.00410399      2.68839271      5.90037678
  C      2.30891536      2.36757415      4.61427322
  C      1.28408833      0.94060328      2.85347805
  C      0.08250509      1.49740561      2.09785403
  C      0.15687813      2.03768353      7.47333651
  H     -0.42041092      0.68598471      5.19342278
  H      2.50569811      3.33283553      6.59246270
  H      3.12763937      2.64475203      3.97256429
  H      2.22308719      1.19982370      2.35200050
  H      1.19811052     -0.14548382      2.93524252
  H      0.04801525      1.07707163      1.09705440
  H      0.15241999      2.57952698      2.01673914
  H     -0.84048831      1.24383296      2.61413900
  H     -0.11953382      3.05979864      7.73127004
  H      0.77887474      1.62402720      8.26730766
  H     -0.74527484      1.42475616      7.35075298
  N      9.70100858     10.93587270     10.31836699
  C      8.41921114     10.58938680     10.41019721
  N      7.85792011     11.25642682     11.41566444
  C      8.80582759     12.05179651     11.98035372
  C      9.96481845     11.85245853     11.28750440
  C     10.64389336     10.48094101      9.32736046
  C     10.48723560     11.27444318      8.03526783
  C      6.49869089     11.15041136     11.86356999
  H      7.91976991      9.88152614      9.77843192
  H      8.53460687     12.71216329     12.78716388
  H     10.97016747     12.22034990     11.41125952
  H     11.65088445     10.65391782      9.74745164
  H     10.48062240      9.41567885      9.14757804
  H     11.19965761     10.91073516      7.30117593
  H     10.69706636     12.32341966      8.22364532
  H      9.48037426     11.18019583      7.62781171
  H      6.28579611     12.03690380     12.48772806
  H      6.36930062     10.25425577     12.47171310
  H      5.82138326     11.10957075     11.01215217
 Cl     13.20423120     11.53659289     10.91963407
 Cl      4.31840360      2.27547246      2.04646922
 Cl     -2.14952984      0.07613861      6.16788333
 Cl      0.05451506      2.66944357     -4.65520203
 Cl      6.55776733     13.75658712     13.68705233

