#B3LYP/6-31+G(d) OPT FREQ

62, Energy =    -96.25557492 au

0 1
  N      0.91208319      4.93255970      9.56349350
  C      1.83979827      5.79576084      9.13198607
  N      2.92528984      5.66818807      9.90173673
  C      2.62745743      4.81897628     10.93202124
  C      1.37499383      4.35315761     10.71700289
  C     -0.37910437      4.75109837      8.95862072
  C     -0.32130459      3.68499331      7.86852835
  C      4.11373668      6.46121931      9.80019641
  H      1.82962539      6.26302813      8.16805863
  H      3.34830908      4.59813547     11.69284234
  H      0.77173170      3.67750529     11.28804869
  H     -1.09265293      4.47463412      9.74022080
  H     -0.67804235      5.71496067      8.54033259
  H     -1.26419382      3.64621081      7.32991233
  H     -0.11869855      2.70527365      8.29794272
  H      0.47750383      3.92237721      7.16945810
  H      4.38450324      6.57351336      8.75087972
  H      4.91352624      5.96677051     10.35068172
  H      3.92856548      7.45275853     10.22049776
  N      5.27561496      2.91365401      8.76694808
  C      5.64865189      2.23979665      9.85779615
  N      4.57415712      1.62327544     10.37227289
  C      3.47935046      2.02317667      9.64490191
  C      3.91500168      2.81938601      8.64169981
  C      6.13593597      3.70942170      7.92789868
  C      5.97449749      3.33127901      6.46162237
  C      4.56829855      0.97050307     11.64830554
  H      6.66071317      2.02601072     10.13200933
  H      2.48931359      1.71360829      9.90350326
  H      3.37836524      3.32147682      7.85103476
  H      5.87840980      4.76286155      8.06436513
  H      7.16224638      3.55899806      8.27149360
  H      6.67949975      3.89695990      5.85915316
  H      4.96654695      3.57019434      6.12875418
  H      6.15835735      2.26900980      6.31522022
  H      5.20647339      0.08507230     11.63154651
  H      3.55186902      0.68542461     11.90804292
  H      4.95625223      1.67775780     12.38747208
  N      3.82134765     -0.15438094      6.53432237
  C      4.16671063      0.36338076      5.34594749
  N      3.24030111      1.24393727      4.97490280
  C      2.22423526      1.21096572      5.88704056
  C      2.58142219      0.33516818      6.85537321
  C      4.50217969     -1.25849479      7.15569017
  C      5.86297160     -0.85180315      7.71041051
  C      3.25663273      2.07690828      3.80922678
  H      5.12425282      0.25446058      4.88278959
  H      1.36594379      1.84107297      5.79214879
  H      2.06236814      0.01993877      7.73564357
  H      3.86565370     -1.64225799      7.95546566
  H      4.61629281     -2.02874557      6.38275488
  H      6.33539317     -1.70792044      8.18471275
  H      5.75720238     -0.05616183      8.44504690
  H      6.51119833     -0.50512465      6.91046154
  H      3.03594996      3.10004670      4.12508733
  H      2.50322685      1.74194547      3.09531106
  H      4.23656544      2.03013797      3.34117108
 Cl      3.77477613     -1.69885165      3.99513243
 Cl      2.64581989      4.40315206      6.10206285
 Cl     25.99215739     15.72349999    -15.23916612
 Cl      5.97341183      3.95201522     11.64297706
 Cl      0.86603666      7.87001244      9.96915379

