62
Energy =    -96.25799961 au
  N      9.71382840      2.91828843      2.93240422
  C     10.05620812      3.05681774      4.21070805
  N      9.11007595      2.52459007      4.97661190
  C      8.15529837      1.99182304      4.16760351
  C      8.52840378      2.23743135      2.88774501
  C     10.45896420      3.34523182      1.77086670
  C     11.94515145      3.48209304      2.06968472
  C      9.17455438      2.46731385      6.40507070
  H     10.88830015      3.61504807      4.58053148
  H      7.28868955      1.49762154      4.55567628
  H      8.04644508      1.99662389      1.96284516
  H     10.30515790      2.58910375      0.99537552
  H     10.04151241      4.29432352      1.41228019
  H     12.50809450      3.51103116      1.14077599
  H     12.27206687      2.62876607      2.66188723
  H     12.15082212      4.39169397      2.62760860
  H      8.35275406      1.86429987      6.78443886
  H      9.10687945      3.47664895      6.81482762
  H     10.12952781      2.01673691      6.68424824
  N      8.24013753      8.95409088      5.01813993
  C      8.64924578      8.19832239      4.00147292
  N      9.96510684      8.03715180      4.08417373
  C     10.41920870      8.76002315      5.14872871
  C      9.33874390      9.33390290      5.73568681
  C      6.86391246      9.29412569      5.26255796
  C      6.14581889      8.14061557      5.95785982
  C     10.72230083      7.23511401      3.17177638
  H      8.01766998      7.66969557      3.32313286
  H     11.45761541      8.80920921      5.40507956
  H      9.26756868      9.97393402      6.59094168
  H      6.83179621     10.20208094      5.87010467
  H      6.41053104      9.50741137      4.29108664
  H      5.06988277      8.28506884      5.92228319
  H      6.45673263      8.06698408      6.99768447
  H      6.39582612      7.20411836      5.46471703
  H     10.31251916      6.22310029      3.19567070
  H     11.76945557      7.22791700      3.46643312
  H     10.61560635      7.64413550      2.16562893
  N      7.90269189      7.66120385     -0.38800087
  C      6.77373129      7.86779148      0.28923021
  N      6.72066545      7.00932339      1.30781633
  C      7.79298027      6.16639484      1.21680005
  C      8.53750568      6.58013004      0.16399017
  C      8.34929429      8.41223675     -1.52925407
  C      9.56140714      9.26679540     -1.17105349
  C      5.62373947      6.85350340      2.21658317
  H      6.14213806      8.72345214      0.17736101
  H      7.94138365      5.39311596      1.94469739
  H      9.45163488      6.19891199     -0.24329870
  H      8.58393666      7.71432774     -2.33979379
  H      7.51613965      9.03972772     -1.84840357
  H      9.78259328      9.96497129     -1.97375264
  H     10.43625054      8.64328032     -0.99816358
  H      9.35120776      9.82240487     -0.25945753
  H      5.31861698      7.82763819      2.59840508
  H      5.93822996      6.21075596      3.03807627
  H      4.78204835      6.40243298      1.68560300
 Cl      5.12901316      6.81371078     -1.26299902
 Cl      8.14756198      5.37574438      4.49606714
 Cl     11.79605524      1.16010320      4.60059263
 Cl      8.47313513      9.90998635      2.11202454
 Cl     -8.87955212      1.99429000     31.04794310
