62
Energy =    -96.26265504 au
  N      3.45177198      6.60828478      7.01252277
  C      3.54230151      7.91564585      6.78456557
  N      4.81664350      8.22811513      6.59095947
  C      5.56312766      7.09460257      6.70209743
  C      4.70223334      6.07258188      6.96477454
  C      2.22585089      5.87054935      7.19002121
  C      1.45043179      5.82805992      5.87907106
  C      5.32185005      9.54675364      6.33427431
  H      2.71099106      8.61216648      6.69332840
  H      6.61719410      7.10253931      6.52208677
  H      4.85701302      5.02972760      7.17079920
  H      2.49421231      4.86500358      7.52930799
  H      1.62557068      6.36652046      7.95527986
  H      0.54286812      5.24555393      6.00935347
  H      2.04937423      5.36484281      5.10115329
  H      1.18257960      6.83566897      5.56902209
  H      6.10899235      9.47337479      5.57634989
  H      5.74015303      9.97399039      7.24852177
  H      4.50558381     10.17380983      5.98334598
  N      4.57057387      9.64564360      1.55340411
  C      3.40854105     10.17479815      1.17855409
  N      2.56898051     10.11983707      2.20252235
  C      3.20556629      9.54499213      3.26380908
  C      4.46892784      9.24743084      2.85648624
  C      5.75135821      9.54951012      0.73442073
  C      6.88896508     10.38291458      1.31607820
  C      1.20991810     10.57510991      2.17409168
  H      3.13810262     10.59233736      0.20745399
  H      2.70674968      9.43953604      4.21243745
  H      5.30367016      8.80325800      3.37233885
  H      6.06163523      8.50287578      0.68531819
  H      5.48065678      9.89391603     -0.26563171
  H      7.74699378     10.34709749      0.65147587
  H      7.18004299      9.97938307      2.28322259
  H      6.57616285     11.41659805      1.43454822
  H      1.01975591     11.21597086      3.03373201
  H      0.53182014      9.72235184      2.23005027
  H      1.04494549     11.11058493      1.23891772
  N      6.38143886      2.26272165      6.46519189
  C      5.87014639      1.16472496      7.00580016
  N      6.25307082      1.07967112      8.27302534
  C      7.06342396      2.13602549      8.54250105
  C      7.14270528      2.88110560      7.41199547
  C      6.16313613      2.72507005      5.11739812
  C      4.67188342      2.76312581      4.79055495
  C      5.93623084     -0.02480407      9.12662716
  H      5.18848492      0.49551590      6.52683436
  H      7.50932615      2.28380586      9.50395618
  H      7.65774637      3.79661452      7.21599870
  H      6.59406455      3.72425943      5.04080184
  H      6.69378067      2.05626827      4.43185564
  H      4.48892587      3.43193399      3.95360522
  H      4.11894301      3.11438174      5.66124413
  H      4.31107849      1.76752403      4.53498689
  H      4.85529125     -0.07505846      9.27979878
  H      6.43702862      0.09477306     10.08560788
  H      6.28431035     -0.93588678      8.62990458
 Cl      3.84795654      3.05810190      8.21966391
 Cl      1.30029624      9.99873209      5.97377786
 Cl      1.98173549     11.48754293     -1.28575868
 Cl      7.46546263     -0.84597996      6.28345540
 Cl      7.45541583      8.33600185      4.14473567
