#B3LYP/6-31+G(d) OPT FREQ

62, Energy =    -96.16550906 au

0 1
  N      5.04734041     -0.02985551      1.85275287
  C      4.09165806      0.84666863      1.47108890
  N      3.06619861      0.15430834      0.92317345
  C      3.40198255     -1.17282804      0.93161401
  C      4.62673844     -1.28151179      1.50499298
  C      6.33895654      0.33866899      2.36587145
  C      6.22628896      1.07336701      3.69829720
  C      1.88992046      0.75837148      0.37702543
  H      4.05142053      1.90201565      1.64241164
  H      2.75192045     -1.92893123      0.53769603
  H      5.22677705     -2.15185007      1.68273762
  H      6.92952891     -0.57378481      2.48080119
  H      6.81489124      0.97294454      1.60662967
  H      7.21203319      1.39484458      4.02458543
  H      5.80085533      0.42363881      4.46162949
  H      5.58872620      1.94817552      3.60096900
  H      1.79279859      1.75757839      0.80728975
  H      1.01055967      0.16347144      0.62472013
  H      1.96908958      0.84873213     -0.71065282
  N      5.58765676      8.47407151      1.75190622
  C      4.34869996      8.47393476      1.17081110
  N      3.75734745      7.26490444      1.44468849
  C      4.60736581      6.56131777      2.26114120
  C      5.72526650      7.30347620      2.44652790
  C      6.52945644      9.55504097      1.74686907
  C      6.27766127     10.52229731      2.90375946
  C      2.46075941      6.84558356      1.01591680
  H      4.00878601      9.17533657      0.44168083
  H      4.33140652      5.58861021      2.62424182
  H      6.63409229      7.09048574      2.97327899
  H      7.53030995      9.11301179      1.83264440
  H      6.44837928     10.08293837      0.79136203
  H      6.99997105     11.33308572      2.86870779
  H      6.38671277     10.00194435      3.85125024
  H      5.27294657     10.94045332      2.84895900
  H      1.67669488      7.47705116      1.44992731
  H      2.30669333      5.81223251      1.33857351
  H      2.38314707      6.89717754     -0.07571600
  N      7.10603500      4.74585141      0.97056594
  C      5.98462659      4.06633870      0.75264156
  N      5.31989094      4.62436897     -0.24870593
  C      6.04100268      5.69537781     -0.68515497
  C      7.16682547      5.77003781      0.07863384
  C      8.13682025      4.40235221      1.91616279
  C      9.08670252      3.38292042      1.29252748
  C      4.11117741      4.08900201     -0.79514370
  H      5.65869648      3.20370456      1.29076927
  H      5.71610416      6.30710459     -1.50172664
  H      7.96813261      6.48442746      0.12166046
  H      8.66534797      5.32839194      2.17196444
  H      7.65903474      3.98667794      2.80589799
  H      9.74834163      2.97273422      2.05033148
  H      9.69019717      3.85808968      0.52380670
  H      8.51846629      2.57583186      0.83356321
  H      3.73714662      4.74093286     -1.57842493
  H      3.37314481      3.97646436      0.00188115
  H      4.33406025      3.09896525     -1.19638375
 Cl      2.55689778      3.64499956      2.18138923
 Cl     -3.25450340     16.62621557     32.36978430
 Cl     -0.71746540     17.63357129     32.79080352
 Cl      6.34436540      1.58768494     -0.64248087
 Cl      9.18907501      7.57136681      1.97175137

