62
Energy =    -96.26663651 au
  N      5.96065649      2.63665476      0.75597731
  C      4.94194962      2.46726153     -0.08458923
  N      4.01945972      1.72029556      0.50608134
  C      4.45786758      1.39062038      1.75197474
  C      5.67868368      1.97002724      1.91035562
  C      7.16553499      3.38920439      0.49859979
  C      6.85215605      4.82712129      0.10366349
  C      2.75581014      1.35918981     -0.06688417
  H      4.80154915      2.91400599     -1.06364894
  H      3.84354583      0.83971125      2.43378689
  H      6.36489909      1.98141984      2.73639977
  H      7.76029114      3.36056535      1.41744880
  H      7.72104719      2.89654180     -0.30578230
  H      7.77450660      5.33552306     -0.16265060
  H      6.39635003      5.35865509      0.93492431
  H      6.17726120      4.85666131     -0.74862305
  H      2.56524474      2.00486772     -0.92269756
  H      1.98888071      1.48224140      0.70244841
  H      2.77002035      0.31782953     -0.39139028
  N      7.99852560      8.53952603      3.75302132
  C      7.94500557      7.96562281      4.95088507
  N      8.07908299      6.64848117      4.81513971
  C      8.15532633      6.36233988      3.48681405
  C      8.11542560      7.54585798      2.82044114
  C      8.05325548      9.96147672      3.48954627
  C      9.49758230     10.43910473      3.46541818
  C      7.97929424      5.68565481      5.87145448
  H      7.87761188      8.48963214      5.88132673
  H      8.22727158      5.34399144      3.15045394
  H      8.15266824      7.75862631      1.77239289
  H      7.57556379     10.15370704      2.52759414
  H      7.48941993     10.47659639      4.26810335
  H      9.54112950     11.51035633      3.24257590
  H     10.06074841      9.90918808      2.69981289
  H      9.97289056     10.27019900      4.42951418
  H      7.01664033      5.82000901      6.36703902
  H      8.78304300      5.82652704      6.59526682
  H      8.04044833      4.68845596      5.43605790
  N      3.07707525      5.32653931      1.35403821
  C      3.33521618      4.47974133      2.35051258
  N      4.26386137      5.01268337      3.13837396
  C      4.61230442      6.22801295      2.64176224
  C      3.86424290      6.42550420      1.52170178
  C      2.14086353      5.13752889      0.26940572
  C      0.81040627      4.58628752      0.75797709
  C      4.83030689      4.43702982      4.32371858
  H      2.82283173      3.53895916      2.53255877
  H      5.29000062      6.87079801      3.17029150
  H      3.84348513      7.25067284      0.84046071
  H      1.99463086      6.11285156     -0.20185212
  H      2.58643119      4.47831035     -0.48849139
  H      0.16625192      4.40049770     -0.09647478
  H      0.32043738      5.29959139      1.41889374
  H      0.94103582      3.65363218      1.29989594
  H      4.18140616      3.64439379      4.68671454
  H      4.93114952      5.22914168      5.06771040
  H      5.82200966      4.02739497      4.11196420
 Cl      1.50621512      1.87342097      2.95934004
 Cl      3.58158772      3.86378072     -2.51754869
 Cl      8.21641834      3.03348219      3.71357488
 Cl      9.86809662     13.69040245      2.76344731
 Cl      5.34143262      7.73698798      5.45662288
