62
Energy =    -96.26385860 au
  N      6.93928820      7.89855997      5.58380447
  C      6.18046118      7.75668344      6.66752755
  N      5.45332094      8.85544229      6.83089109
  C      5.74124261      9.72087313      5.82146030
  C      6.67482438      9.11951345      5.03628490
  C      7.90728309      6.93705573      5.11405948
  C      7.44035118      6.24299044      3.84086626
  C      4.49358523      9.11044456      7.86641899
  H      6.26336509      6.90219183      7.32860244
  H      5.31841298     10.71262604      5.79878907
  H      7.16091686      9.46999660      4.14984780
  H      8.84782016      7.46472705      4.92984537
  H      8.04967089      6.21028631      5.92550142
  H      8.22975961      5.59459071      3.47163119
  H      7.19387874      6.96944497      3.06810070
  H      6.56808176      5.62884638      4.04166327
  H      3.54579786      8.60452497      7.64325471
  H      4.32005905     10.18366288      7.91839106
  H      4.86801801      8.73914402      8.81825233
  N      1.10347509      9.49482763      3.93918377
  C      1.92992070     10.15214970      3.12608621
  N      2.69779473     10.95213476      3.85353252
  C      2.36129992     10.80920868      5.16337251
  C      1.35774325      9.89293049      5.21972380
  C      0.08943764      8.54917068      3.54017663
  C      0.52193253      7.11003361      3.79205785
  C      3.69460252     11.84582452      3.33840591
  H      2.06484342     10.00308237      2.06403640
  H      2.86962992     11.37453511      5.92610508
  H      0.87007776      9.44882318      6.06314463
  H     -0.81420137      8.76598709      4.11800422
  H     -0.11686545      8.70820715      2.47839571
  H     -0.31773374      6.43993420      3.62970171
  H      0.86575537      7.00327070      4.82011557
  H      1.32339752      6.83263251      3.11446012
  H      4.24814892     11.34228799      2.54583119
  H      4.34235354     12.15884329      4.15726733
  H      3.21615391     12.72972412      2.91291970
  N      3.73793711      5.71368342      4.33432564
  C      4.04027485      5.33080415      3.09574089
  N      4.27297925      6.41076957      2.36083832
  C      4.12599827      7.51447522      3.14461680
  C      3.78765751      7.07427719      4.38847575
  C      3.41521436      4.83864612      5.43626895
  C      4.64225375      4.07857821      5.92620799
  C      4.61092589      6.40264322      0.96712251
  H      4.02887275      4.32765714      2.67238776
  H      4.23105200      8.49913503      2.73135798
  H      3.50633105      7.59832178      5.28011101
  H      2.98580459      5.45708158      6.22887842
  H      2.65960443      4.12823625      5.08946684
  H      4.34709792      3.39333969      6.71573723
  H      5.40069389      4.74294394      6.33316356
  H      5.07718997      3.49960096      5.11370243
  H      5.69393126      6.45658994      0.84358166
  H      4.16103491      7.27229634      0.48789094
  H      4.25443288      5.46858707      0.53134194
 Cl      7.67822356      5.32048660      7.96184558
 Cl      3.84127164      3.00308762      1.01306643
 Cl      1.69807358      7.33743768      7.06795657
 Cl      4.64109440     12.72209478      6.53613031
 Cl      3.72053537      9.76478275      0.59371162
