62
Energy =    -96.26942482 au
  N      9.24026607      7.83685778      7.64896641
  C      9.53694128      6.56255524      7.40410918
  N      9.82978086      6.42831328      6.11784900
  C      9.71755279      7.64996392      5.52321227
  C      9.34925958      8.53782261      6.48802644
  C      8.87594747      8.40690932      8.92423368
  C      9.93292371      8.10435676      9.97796154
  C     10.19675414      5.19493202      5.48654559
  H      9.50697182      5.72780819      8.09512190
  H      9.88822226      7.78524268      4.47547712
  H      9.17202881      9.60264655      6.48222694
  H      8.77628001      9.49021237      8.76777156
  H      7.91248447      7.99084415      9.23313272
  H      9.64573603      8.56401185     10.91943653
  H     10.89186501      8.51633327      9.67293245
  H     10.03786268      7.03196688     10.12796709
  H     11.21657968      5.25538106      5.10505520
  H      9.52237502      4.98581490      4.64924855
  H     10.12512065      4.39930593      6.22493289
  N      6.49333103      3.65554432      5.57866674
  C      5.81536050      4.23090431      4.59368138
  N      5.80773235      5.54143708      4.78006162
  C      6.54293691      5.81834339      5.89398047
  C      6.97334838      4.63162083      6.40092894
  C      6.76637075      2.24738257      5.70914153
  C      8.24932643      1.97502287      5.48308582
  C      5.22236794      6.47114159      3.86000236
  H      5.24038207      3.74970379      3.81757573
  H      6.69912348      6.82169893      6.23489690
  H      7.59230727      4.39946018      7.25130039
  H      6.47552516      1.92631741      6.71396076
  H      6.15445499      1.72554455      4.97021667
  H      8.42573080      0.90651622      5.39443441
  H      8.82548925      2.35846320      6.32089997
  H      8.57342628      2.46926094      4.57113056
  H      5.96928329      6.75129647      3.11444460
  H      4.87824379      7.35854005      4.38788509
  H      4.39224079      5.96931551      3.35767911
  N      5.16941789      2.91111405      0.48284011
  C      4.46007591      2.91655245     -0.63839774
  N      4.39272556      4.15803703     -1.10292688
  C      5.07376785      4.96953739     -0.24368442
  C      5.55676717      4.18561189      0.75619466
  C      5.39407099      1.77570385      1.34070570
  C      6.87522118      1.57922490      1.63442777
  C      3.70459470      4.54006793     -2.30256521
  H      4.04770999      2.07333507     -1.17370060
  H      5.15322803      6.02639854     -0.39347228
  H      6.16085563      4.43976750      1.60638365
  H      4.83061054      1.96311982      2.26178457
  H      4.97436116      0.89896609      0.84149080
  H      7.00667966      0.74239370      2.31556854
  H      7.30379792      2.46764688      2.09223378
  H      7.41776214      1.36772762      0.71503753
  H      4.29862822      5.26489535     -2.85774055
  H      2.73537518      4.97826884     -2.05996375
  H      3.55554349      3.63314397     -2.90180321
 Cl      3.23016021      3.85076887      2.80846434
 Cl      9.29969429      3.65613742      8.66417293
 Cl      8.13253538      4.71130659      2.90425700
 Cl      8.81982610     11.50113706      7.71524099
 Cl      3.65489955      1.42431990     -3.34839401
