#B3LYP/6-31+G(d) OPT FREQ

62, Energy =    -96.25720612 au

0 1
  N      6.70615397      7.66698976      1.07895168
  C      7.37878511      6.86453191      1.90111263
  N      6.93291549      7.04593762      3.13753306
  C      5.94979751      7.98994918      3.10490845
  C      5.80467082      8.37861195      1.80788834
  C      6.85271903      7.74364539     -0.35408083
  C      6.37455920      6.45189854     -1.00696589
  C      7.41514393      6.35029762      4.29548487
  H      8.15036389      6.14505708      1.64759404
  H      5.42465740      8.28575337      3.98877652
  H      5.18142457      9.11393200      1.32351252
  H      6.25334408      8.60183457     -0.68792185
  H      7.90616254      7.91385966     -0.59117270
  H      6.47221595      6.53207833     -2.08576797
  H      5.32808652      6.27813047     -0.76808674
  H      6.96395398      5.60445564     -0.66157190
  H      8.08059290      5.55326921      3.96629907
  H      6.56938805      5.93348692      4.85147882
  H      7.95897449      7.03608874      4.94636053
  N      6.57917248      2.87774576      2.75369086
  C      7.54787499      2.08958743      2.30355766
  N      8.26561810      1.64930855      3.32407667
  C      7.74215810      2.17580469      4.46502381
  C      6.68566148      2.95273701      4.11177164
  C      5.64747492      3.60703461      1.93120580
  C      4.24492442      3.59868929      2.52112042
  C      9.35646146      0.73069309      3.20192131
  H      7.72287300      1.83045427      1.28043955
  H      8.15379513      1.96778669      5.43123350
  H      6.02583500      3.54761106      4.71455576
  H      6.01064438      4.63545474      1.83123515
  H      5.65347586      3.14019529      0.94313974
  H      3.56668960      4.11278257      1.84424505
  H      4.22695846      4.10395428      3.48375843
  H      3.90638327      2.57379136      2.65437707
  H     10.16384469      1.19413956      2.63348838
  H      8.97952082     -0.14630845      2.66430329
  H      9.71230598      0.44889315      4.19056169
  N      1.47551875      5.22065421      4.94672281
  C      1.60765567      5.57171524      6.22107498
  N      1.84107830      4.48789263      6.95240257
  C      1.81059001      3.40547157      6.12794341
  C      1.58575407      3.86298799      4.87122819
  C      1.25827341      6.12545916      3.84585445
  C      2.42401695      7.10111696      3.70914779
  C      1.97160458      4.49481830      8.37730132
  H      1.63524261      6.57556407      6.58726931
  H      1.96941379      2.40945864      6.48620554
  H      1.51379405      3.33608442      3.94281166
  H      1.15983239      5.52068946      2.94178345
  H      0.31824334      6.65838727      4.02202374
  H      2.42546120      7.56546502      2.72736610
  H      3.35986103      6.56678940      3.85390443
  H      2.36056129      7.88106111      4.46255865
  H      2.04294245      3.47254773      8.74217874
  H      1.08596988      4.98156814      8.79336794
  H      2.86745575      5.04795076      8.66400472
 Cl     -0.86304646      5.84714001      7.03234938
 Cl      4.86020102     10.39928428     -0.56296177
 Cl      6.82533394     -0.66976255      1.75682520
 Cl      4.60716340      5.20304468      5.74430874
 Cl      9.32126432      4.36316132      1.98290524

