#B3LYP/6-31+G(d) OPT FREQ

62, Energy =    -96.27724774 au

0 1
  N      0.31735188      6.75197407      4.73664505
  C      0.26367093      7.03860559      3.43683679
  N     -0.14524082      5.96200524      2.77490058
  C     -0.36287134      4.95979372      3.66937952
  C     -0.07324626      5.45784461      4.90272109
  C      0.67192634      7.65326374      5.80251178
  C     -0.57547748      8.18641227      6.50034528
  C     -0.35119347      5.88000241      1.35796282
  H      0.60293150      7.94216257      2.95615202
  H     -0.65173402      3.98024835      3.33692800
  H     -0.07746796      4.99576407      5.86759137
  H      1.29875826      7.09400825      6.50559527
  H      1.24912685      8.47418575      5.37354154
  H     -0.28515940      8.84877697      7.31064908
  H     -1.15989460      7.36879446      6.91561560
  H     -1.19810190      8.74168369      5.80121428
  H     -1.38051531      6.14780214      1.11321810
  H     -0.17374154      4.85102780      1.03862273
  H      0.32361989      6.57684892      0.86361859
  N      3.06955666      3.50955602      3.86056455
  C      2.56670453      3.93686555      2.70447154
  N      3.41561358      4.80094249      2.15646628
  C      4.48594775      4.93269572      2.98903777
  C      4.26565508      4.11840712      4.05819395
  C      2.43262384      2.56319408      4.74247261
  C      2.14344514      1.25243561      4.02526227
  C      3.21689602      5.48925799      0.91382836
  H      1.64501417      3.57012567      2.25195249
  H      5.31716453      5.56631144      2.75894516
  H      4.85003948      3.95634223      4.93908290
  H      3.09176916      2.41762931      5.59977768
  H      1.50296630      3.00837094      5.10376742
  H      1.68806660      0.55047221      4.71782078
  H      3.06121270      0.81520919      3.63724109
  H      1.45545286      1.41995856      3.19987233
  H      2.49647929      4.93672534      0.31528832
  H      4.16058820      5.56460253      0.37672496
  H      2.82977220      6.50332204      1.08685046
  N      5.48210024      8.52984571      3.32247295
  C      6.21640232      8.01814714      4.30327126
  N      5.41261824      7.37822323      5.14693789
  C      4.13208651      7.48948039      4.69180295
  C      4.17271586      8.21645279      3.54352286
  C      6.02166739      9.26645820      2.20366403
  C      5.62600575      8.61997990      0.88240952
  C      5.79426868      6.68556506      6.34479238
  H      7.30642491      8.10105930      4.32173810
  H      3.32966206      6.99736579      5.20491660
  H      3.38436652      8.49586545      2.86628461
  H      5.64274876     10.29168562      2.24258428
  H      7.11005746      9.27147231      2.32922749
  H      6.04001700      9.19753286      0.06113856
  H      4.54463921      8.58644797      0.77267382
  H      6.02526328      7.61013388      0.82465896
  H      6.66862925      6.06540324      6.15405291
  H      4.95012346      6.07119520      6.66457297
  H      6.03791911      7.39729406      7.13492009
 Cl      1.87199327      8.56997189      1.17844220
 Cl      2.70578826      5.18187544      6.59986461
 Cl      0.02127911      2.54076927      1.43062071
 Cl      9.14053382      8.48642652      3.46799737
 Cl    -20.87695562      8.80006574     24.82774426

