62
Energy =    -96.26881864 au
  N      3.32800177      9.00329146      2.54770948
  C      2.67437838      9.15444291      3.69520747
  N      2.22399361      7.96935516      4.08620889
  C      2.60167536      7.03144039      3.16918330
  C      3.29629028      7.68307568      2.19838706
  C      3.98039876     10.04717909      1.79815228
  C      5.46562254      9.74816262      1.63047497
  C      1.46862793      7.74776043      5.28583781
  H      2.48918976     10.07280603      4.25327787
  H      2.34871536      5.99073308      3.27907870
  H      3.77198260      7.33371287      1.29578027
  H      3.51410179     10.11145193      0.81049842
  H      3.81886461     10.98497607      2.33561001
  H      5.95198709     10.57944401      1.12718252
  H      5.59526994      8.85214823      1.02512749
  H      5.93668444      9.59922768      2.59944414
  H      2.02522417      7.09991221      5.96363842
  H      0.52401671      7.26023033      5.04589340
  H      1.28814798      8.71628167      5.75515353
  N      3.26769649     -0.51454435      6.60276586
  C      2.18547784      0.03790923      7.14867138
  N      1.95115537      1.19279636      6.53361733
  C      2.90760164      1.38548227      5.58275787
  C      3.73534866      0.30880533      5.62159013
  C      3.84737250     -1.78201027      6.97613800
  C      2.81185112     -2.89807928      6.92748682
  C      0.88294441      2.11501406      6.79662682
  H      1.58872731     -0.41240431      7.94479203
  H      2.88800622      2.25160112      4.94582185
  H      4.59434117      0.07178045      5.01272288
  H      4.67061457     -1.97272581      6.28303568
  H      4.24575531     -1.70204902      7.99250888
  H      3.28443583     -3.84661784      7.16829010
  H      2.37429526     -2.96614487      5.93414676
  H      2.02252955     -2.70589463      7.65346111
  H     -0.04580189      1.57160571      6.96135265
  H      0.79133674      2.78115487      5.93713105
  H      1.10318972      2.70858904      7.68553440
  N      4.84307888      3.92655625      2.27069139
  C      4.60549413      2.67839754      2.65708091
  N      3.72053017      2.13064511      1.83797161
  C      3.37367969      3.06053869      0.90711869
  C      4.08056242      4.19090400      1.17440890
  C      5.73265964      4.86042414      2.91356279
  C      6.84641702      5.29532113      1.96930553
  C      3.19743859      0.80362516      1.97863993
  H      5.08893460      2.13888731      3.45175036
  H      2.64745157      2.86604384      0.14546723
  H      4.12616281      5.13212374      0.65608744
  H      5.14706662      5.73085128      3.22268669
  H      6.13927681      4.36778718      3.80020710
  H      7.52302229      5.96982643      2.48701173
  H      6.42879294      5.81683017      1.10951089
  H      7.40860089      4.43070608      1.62400097
  H      2.92115203      0.40981564      1.00216402
  H      2.31930119      0.82518591      2.62583031
  H      3.97202540      0.18166968      2.43647522
 Cl      6.09995835     -0.12892173      3.41216582
 Cl      1.80079468      3.83575046      3.75674495
 Cl      0.59201676     -1.61945040      9.32273561
 Cl      5.05552049      6.98207631     -0.50763799
 Cl      1.67320539     11.29976299      5.73513952
