#B3LYP/6-31+G(d) OPT FREQ

62, Energy =    -96.14275695 au

0 1
  N      5.26294419      1.66596987      9.50980866
  C      6.69269129      1.94252111      9.59930236
  N      7.16711522      1.25856221     10.80072714
  C      6.08705494      0.45067246     11.21472219
  C      5.00488695      0.68690830     10.47452652
  C      4.66408120      1.54529019      8.19865268
  C      5.02580153      0.25938099      7.45200358
  C      8.45994371      0.62468939     10.67332614
  H      7.24624798      1.60233440      8.70851676
  H      6.20416413     -0.18073268     12.07542613
  H      4.01422283      0.28669462     10.57877712
  H      3.57789477      1.59723787      8.33065946
  H      4.97236287      2.41421626      7.61201307
  H      4.56565880      0.25996521      6.46712060
  H      4.68421470     -0.61618808      8.00375897
  H      6.10376549      0.17555994      7.33048170
  H      8.53504886     -0.00385972      9.77499123
  H      8.64690354      0.00521600     11.55089984
  H      9.22859743      1.39715645     10.61247086
  N      2.85625674      6.78561848      1.85396005
  C      3.24947593      7.37258370      2.98523474
  N      4.01540220      6.52900180      3.66452327
  C      4.12949818      5.37121266      2.95271131
  C      3.38801319      5.53188783      1.81748946
  C      2.02270451      7.40135802      0.85418391
  C      2.76015177      7.51309728     -0.47347456
  C      4.52113721      6.69864940      4.98760707
  H      3.00527621      8.40195601      3.22177685
  H      4.73679406      4.57427435      3.34965940
  H      3.16204977      4.84267450      1.02769637
  H      1.12004608      6.79805254      0.73384813
  H      1.76851698      8.39944128      1.22461956
  H      2.12293324      8.01415965     -1.19874196
  H      3.01918662      6.52779457     -0.85722826
  H      3.66568259      8.10249125     -0.34386794
  H      5.39259831      6.05361890      5.10638584
  H      3.72553617      6.35099227      5.70932499
  H      4.75361368      7.74538359      5.16695879
  N      2.19105522      3.13734439      3.67482785
  C      2.69269819      3.50892735      4.88825942
  N      1.98273144      4.54355019      5.36330466
  C      0.97967282      4.78545241      4.45235169
  C      1.12818265      3.91621031      3.40793193
  C      2.74958431      2.15962132      2.78037815
  C      3.02456636      0.83748424      3.49214328
  C      2.27056399      5.30267884      6.45582626
  H      3.63524827      3.20161126      5.26835870
  H      0.26057969      5.56532514      4.59997793
  H      0.56580271      3.80472705      2.49963702
  H      2.03877772      2.03937364      1.95210878
  H      3.69334999      2.54595960      2.37295389
  H      3.28413984      0.07576321      2.76024682
  H      2.14405067      0.50400240      4.04647362
  H      3.85905743      0.95554126      4.18675878
  H      6.84732638      3.03003446      9.70125923
  H      1.43285388      5.87350603      6.84117589
  H      2.86531584      4.79985020      7.20921546
 Cl      2.46084666     10.42470704      2.53410726
 Cl      9.08707864      0.65279689      6.92979382
 Cl      0.73594473      3.03652934      0.12934528
 Cl      7.53476122      2.25832202      5.68586637
 Cl      6.26653531      3.46919097      4.78788485

