62
Energy =    -96.25201161 au
  N      5.28545760      7.51008163      5.34404823
  C      4.98465741      7.50255974      4.05055768
  N      4.75114113      8.75096749      3.65624650
  C      4.91344008      9.57943743      4.72490181
  C      5.25417934      8.79726773      5.78679161
  C      5.64239556      6.35601938      6.12943850
  C      7.14497895      6.10635017      6.05392237
  C      4.36505147      9.18212400      2.34225148
  H      4.89246940      6.60679478      3.45852004
  H      4.80267729     10.64349749      4.60041196
  H      5.42335724      9.02039117      6.82218939
  H      5.34504584      6.55824839      7.16318320
  H      5.09888673      5.49697260      5.73214014
  H      7.40174389      5.24867774      6.66838216
  H      7.68796756      6.97214723      6.42597528
  H      7.44841194      5.91142799      5.02619671
  H      4.46713686     10.27632035      2.30576195
  H      3.32615497      8.91048636      2.14735889
  H      5.00040087      8.71510353      1.59069112
  N      8.02348220      2.15395266      3.79281467
  C      6.98483932      2.75355439      3.22095486
  N      6.84632475      2.28514855      1.98495710
  C      7.83056929      1.36294931      1.76505917
  C      8.56840062      1.27971294      2.90460318
  C      8.50822949      2.34855425      5.13971682
  C      7.44136920      1.97123950      6.15947341
  C      5.82986551      2.69996131      1.05937012
  H      6.29881754      3.47610987      3.64609491
  H      7.92783336      0.84363895      0.83412338
  H      9.43696370      0.69412144      3.18987890
  H      9.39598152      1.71121488      5.24496348
  H      8.79322925      3.39674513      5.26394034
  H      7.82468936      2.13599179      7.16197074
  H      7.18444361      0.91965763      6.05903423
  H      6.54286260      2.56947690      6.02575208
  H      5.31835691      1.82952408      0.64913193
  H      6.26947122      3.27510966      0.24271504
  H      5.11629815      3.32762852      1.60388333
  N      1.28255842      8.39149003      7.80751718
  C      0.00033307      8.72958420      7.89360503
  N     -0.08417156      9.98510243      8.31819090
  C      1.18130051     10.46110495      8.50375295
  C      2.04026254      9.45912841      8.17651663
  C      1.82838015      7.14176417      7.33496191
  C      1.84062906      7.11937659      5.80973543
  C     -1.31491907     10.68972534      8.54248352
  H     -0.88345118      8.12405743      7.71617438
  H      1.37521970     11.45653742      8.84437211
  H      3.11180420      9.37510345      8.24044255
  H      2.84450065      7.07022700      7.73866859
  H      1.21752797      6.32283293      7.72028079
  H      2.34169453      6.22469491      5.45208957
  H      2.36746575      7.99085588      5.42755152
  H      0.82428436      7.12883007      5.42123337
  H     -1.42153642     11.50261335      7.82374409
  H     -1.33364433     11.09842813      9.55216514
  H     -2.13485149      9.97056305      8.41425905
 Cl      4.73431872     12.36392443      2.94538392
 Cl     10.99414145      0.12535338      4.55214141
 Cl     -3.06106776      7.98937971      7.98614711
 Cl      4.29760457      4.40030995      3.43411292
 Cl      4.74552271      7.92063741      8.96724733
