#B3LYP/6-31+G(d) OPT FREQ

62, Energy =    -96.26804497 au

0 1
  N      4.51359512      3.66483161      5.95998938
  C      4.74195774      3.37165740      7.23485261
  N      4.11351266      4.26310551      7.99424143
  C      3.46998570      5.14708552      7.18136171
  C      3.71778337      4.77049719      5.89924698
  C      5.01651945      2.90093998      4.84408563
  C      3.87165412      2.35439305      4.00041357
  C      4.07957400      4.31703807      9.42764782
  H      5.36625582      2.53223150      7.54226365
  H      2.85640153      5.91869903      7.60034582
  H      3.33996366      5.16751519      4.97491179
  H      5.65031966      3.55109421      4.23341012
  H      5.62428232      2.09220138      5.26320137
  H      4.27405961      1.79478514      3.16053165
  H      3.25716145      3.16499846      3.61498613
  H      3.25043492      1.68903512      4.59519452
  H      4.10557057      3.30925915      9.83771547
  H      3.16213016      4.83538170      9.72236255
  H      4.93762542      4.87347272      9.80876064
  N      3.42502844      9.27277845      4.73010379
  C      2.59393796      8.23805300      4.82498764
  N      1.85294827      8.37877077      5.91662167
  C      2.22394187      9.53393392      6.53867314
  C      3.21303437     10.09696590      5.79085073
  C      4.38377619      9.51992651      3.67928308
  C      3.71501248      9.48261788      2.31135022
  C      0.81344848      7.47438617      6.31478664
  H      2.49648441      7.39981770      4.14725710
  H      1.77250693      9.85178824      7.45531081
  H      3.77347742     11.01571636      5.88045212
  H      4.81613637     10.51080312      3.87671267
  H      5.17058452      8.76185166      3.73369089
  H      4.45470771      9.68851470      1.54294029
  H      2.94093008     10.24409399      2.25523011
  H      3.26928770      8.50944174      2.11720218
  H      0.84132281      6.61918898      5.64385195
  H     -0.15572148      7.97015592      6.24319974
  H      0.95392864      7.13712207      7.34756146
  N      0.24444844      3.31007551      8.25094397
  C     -0.66376610      4.05989647      7.63700558
  N     -0.36327652      4.13707305      6.34475808
  C      0.73382497      3.36299624      6.11494035
  C      1.11741906      2.84609963      7.30951399
  C      0.24026891      2.96740749      9.64780692
  C     -0.51769269      1.66314994      9.86957507
  C     -1.16310367      4.75088723      5.32663861
  H     -1.44155849      4.60428214      8.12899650
  H      1.15996495      3.28073624      5.13662457
  H      1.93037539      2.19519318      7.55891618
  H      1.27695413      2.89101147      9.98535407
  H     -0.23618734      3.78898259     10.18477982
  H     -0.69806184      1.50347228     10.92926939
  H      0.04655609      0.82119329      9.47473188
  H     -1.46920804      1.71493860      9.34314583
  H     -1.97505588      4.06977307      5.06039872
  H     -0.53812078      4.95324260      4.45715630
  H     -1.59559117      5.67584878      5.70301057
 Cl      1.21328259      6.15524813      9.38318114
 Cl      1.74456310      5.50586897      3.32159411
 Cl      6.64741551      0.90235067      7.21884457
 Cl      5.13606019     12.53124640      4.87600847
 Cl     -2.76481808      2.45718405      7.34245425

