#B3LYP/6-31+G(d) OPT FREQ

62, Energy =    -96.25737718 au

0 1
  N      8.05799636      4.03219803      4.41826139
  C      7.93684508      4.91372914      3.43396452
  N      7.54009145      6.07411605      3.94716747
  C      7.41356879      5.92741143      5.29804966
  C      7.73781693      4.64006330      5.59618177
  C      8.47954463      2.66487547      4.23486257
  C      9.69957672      2.36012566      5.09498443
  C      7.30652548      7.29562360      3.23198710
  H      8.14409895      4.66760751      2.39413120
  H      7.08254135      6.74352311      5.91043403
  H      7.77523085      4.11724895      6.53758707
  H      7.65600061      2.00347067      4.52036284
  H      8.69463339      2.54329484      3.16772866
  H     10.05955601      1.35912485      4.87550813
  H      9.44302610      2.41901399      6.15023867
  H     10.49716832      3.06652073      4.87813031
  H      6.64313132      7.92536258      3.83127843
  H      6.85600149      7.08107422      2.26417201
  H      8.24822810      7.82641174      3.07413922
  N      3.57704812      7.10801143      8.22362840
  C      4.02174183      8.34787943      8.39529680
  N      3.33899829      8.91826774      9.38236836
  C      2.44002910      8.02005805      9.86685948
  C      2.58934909      6.87956186      9.13804158
  C      4.08666776      6.16852388      7.25190598
  C      4.95702380      5.11192719      7.92289539
  C      3.49903847     10.24844276      9.89937618
  H      4.76406622      8.79902030      7.75083702
  H      1.76573124      8.31215254     10.65904116
  H      2.07672948      5.94138675      9.20013856
  H      3.23576318      5.69749848      6.74992001
  H      4.66222774      6.74470684      6.52102607
  H      5.28901342      4.38063181      7.19297858
  H      4.40740180      4.59096009      8.70425690
  H      5.84157337      5.56094277      8.36543898
  H      2.65050363     10.44858711     10.56724023
  H      3.52259543     10.96904059      9.08338572
  H      4.42720212     10.32262237     10.46582179
  N      9.71654045     -0.17121916      8.28390154
  C      9.71594701      0.62791873      9.34547316
  N     10.75105503      1.45566418      9.27202920
  C     11.46356055      1.14477412      8.15355659
  C     10.81604494      0.12753987      7.53238802
  C      8.69339338     -1.12798224      7.96099738
  C      7.70481541     -0.52193680      6.96780153
  C     11.04358499      2.46548378     10.24309754
  H      8.95474021      0.66233614     10.09505681
  H     12.35977474      1.66553497      7.88524233
  H     11.04995383     -0.40041611      6.63109730
  H      9.16787681     -2.02608628      7.55388531
  H      8.19132084     -1.39172644      8.89346287
  H      6.81678291     -1.14263416      6.88791116
  H      8.15742280     -0.42478189      5.98375399
  H      7.42132010      0.47164096      7.31107187
  H     11.13857593      1.99138602     11.22198005
  H     10.22335262      3.18697711     10.26021144
  H     11.97281537      2.96850959      9.98118551
 Cl     10.84292893     -1.02094103     11.03487482
 Cl      5.61806530      8.84060451      5.71847892
 Cl      0.84873852      9.99680890     11.84507153
 Cl      8.05461176      2.70074434      8.29148453
 Cl      8.75897111      3.35787579      0.83014753

