#B3LYP/6-31+G(d) OPT FREQ

62, Energy =    -96.01917326 au

0 1
  N      7.63491265      1.86133263      3.67928718
  C      6.94299901      3.00645422      3.71224786
  N      7.37923580      3.78548224      2.71740210
  C      8.34619897      3.11583253      2.02037834
  C      8.50757283      1.89867515      2.62680085
  C      7.42079183      0.71390945      4.56866823
  C      6.97655989     -0.51082971      3.79107834
  C      6.78184502      5.05283708      2.31253408
  H      6.12679812      3.23683672      4.37281683
  H      8.81691054      3.53465863      1.14998155
  H      9.14139125      1.06942659      2.37270470
  H      8.35387853      0.53581873      5.10245629
  H      6.66580471      1.02018324      5.28902656
  H      6.82236233     -1.33350790      4.48794415
  H      7.72387496     -0.81079438      3.05948114
  H      6.04932522     -0.31382565      3.26212156
  H      6.20621752      4.88788083      1.40577827
  H      7.57462005      5.77669937      2.14444006
  H      6.11400115      5.39049377      3.09687249
  N      1.49927879      0.97904875      1.41939118
  C      0.81524883      1.90460391      2.10246146
  N     -0.33360860      1.35654456      2.51070506
  C     -0.37150975      0.05124213      2.10568692
  C      0.78745667     -0.18883857      1.41690542
  C      2.83992078      1.16132460      0.85116504
  C      3.84249315      0.21924068      1.49093108
  C     -1.29333616      1.98056368      3.41431188
  H      1.15620388      2.89407692      2.34803054
  H     -1.18836075     -0.60092555      2.35469902
  H      1.15833926     -1.08999868      0.96490942
  H      2.76385825      0.99949581     -0.22369436
  H      3.10818825      2.20097022      1.02406635
  H      4.82175635      0.39285935      1.04697345
  H      3.56863853     -0.82162652      1.33189588
  H      3.90133939      0.39094897      2.56117564
  H     -1.18396298      1.53004231      4.39707924
  H     -2.29537750      1.82513358      3.02382616
  H     -1.06912528      3.03881860      3.48530640
  N      1.38576406      0.86004410      6.87522909
  C      1.63596113      1.81050122      5.96684204
  N      2.91855256      2.16919708      6.08174112
  C      3.50436920      1.41572700      7.06071626
  C      2.53653476      0.58671784      7.56201673
  C      0.10816766      0.15686878      7.03868636
  C      0.25630876     -1.32724335      6.76040690
  C      3.62978064      3.06480496      5.17674207
  H      0.95105763      2.17368607      5.22211705
  H      4.54732967      1.50482535      7.30334812
  H      2.59155462     -0.17683179      8.31561383
  H     -0.23990061      0.34371820      8.05418257
  H     -0.58916045      0.62144322      6.34541194
  H     -0.71325782     -1.80738452      6.88532024
  H      0.96449144     -1.79177180      7.44332980
  H      0.60834838     -1.49423817      5.74721843
  H      4.26271325      2.46626042      4.52720036
  H      4.22228319      3.76022565      5.76500669
  H      2.90515963      3.59592137      4.57006757
 Cl     -0.29657885      3.07166186      6.90718638
 Cl      9.54381176      2.15642413      5.34765338
 Cl      9.52997010      8.99835033      8.50518901
 Cl      7.01759739      2.38745906     -0.26278731
 Cl      6.85244030      0.23470136      1.35123173

