#B3LYP/6-31+G(d) OPT FREQ

62, Energy =    -96.25519557 au

0 1
  N      5.34756284      8.74201406      0.95567956
  C      4.56865056      9.42016146      1.79204592
  N      3.68322928      8.59569066      2.33964150
  C      3.88314518      7.35545092      1.80875634
  C      4.92002527      7.44926782      0.93915280
  C      6.38039594      9.30655461      0.12768960
  C      7.67459502      8.50997659      0.23520465
  C      2.64127376      8.95449040      3.25873133
  H      4.68527826     10.45374495      2.03952728
  H      3.28857428      6.51259844      2.09416483
  H      5.38063404      6.70304529      0.32752950
  H      6.01190172      9.34252312     -0.90344783
  H      6.53355091     10.33348210      0.46307454
  H      8.49625968      9.07017077     -0.20327946
  H      7.59511341      7.55350464     -0.27536899
  H      7.88996381      8.32430538      1.28507028
  H      2.92271863      8.74525182      4.29864052
  H      1.74358897      8.38409827      3.02449162
  H      2.42225502     10.01404238      3.14459011
  N      7.40322812      4.03805890      3.51217007
  C      7.65586332      2.75454947      3.75685632
  N      7.93669651      2.62101279      5.04887878
  C      7.86803599      3.84379073      5.64418075
  C      7.52885078      4.73725405      4.67589338
  C      7.03228351      4.59810436      2.23400606
  C      5.83745198      3.85535421      1.64954852
  C      8.26821841      1.40542701      5.73672768
  H      7.62402624      1.95610466      3.01278775
  H      8.04925899      3.93872521      6.69963131
  H      7.38227926      5.80011974      4.70074196
  H      6.81376055      5.65723478      2.39669877
  H      7.88451883      4.50856030      1.55319678
  H      5.54086678      4.30944313      0.70834559
  H      4.99405782      3.89583783      2.33479692
  H      6.09882827      2.81447294      1.46429237
  H      8.27249318      1.61544996      6.81092344
  H      9.25495984      1.05637799      5.43016710
  H      7.53804614      0.63283861      5.50161164
  N      5.91883204      7.87181787      7.54884704
  C      5.58693748      8.32875061      6.34413282
  N      5.76697493      9.64659789      6.31157951
  C      6.12229785     10.05594439      7.56151860
  C      6.22152955      8.94690944      8.33633999
  C      5.98902948      6.49089449      7.96791090
  C      7.40521534      6.14344012      8.40483758
  C      5.47519437     10.47236007      5.17933179
  H      5.38028787      7.73126015      5.47832719
  H      6.27538769     11.08839206      7.80147630
  H      6.47593521      8.84211838      9.37058071
  H      5.28194812      6.33274678      8.78714527
  H      5.68596474      5.87116237      7.12394154
  H      7.48372201      5.08260019      8.63989080
  H      7.69236563      6.70783684      9.28932133
  H      8.10634204      6.36781838      7.60463298
  H      5.92587563     11.45388691      5.31223549
  H      4.39239295     10.56452612      5.07769746
  H      5.88377573      9.98276717      4.29331824
 Cl      3.01939011      8.54644745      6.62445234
 Cl      8.28903003      2.82910949      8.80500044
 Cl      7.39666488      0.64246329      1.40041028
 Cl      7.00057411      7.94939791      3.57540125
 Cl      3.20866117     10.69500446     -0.09186423

