#B3LYP/6-31+G(d) OPT FREQ

62, Energy =    -96.27170945 au

0 1
  N      5.84411969      6.28317805      7.29515287
  C      5.79184908      5.70938908      8.49618916
  N      5.35072323      6.59756701      9.37967555
  C      5.17834182      7.79132482      8.74156846
  C      5.48260333      7.59356502      7.43321071
  C      6.33685819      5.63063105      6.11004859
  C      5.29664311      4.68242700      5.52518150
  C      5.21558818      6.39295049     10.79195608
  H      5.89922129      4.65909907      8.67553401
  H      4.83317477      8.65357672      9.27460977
  H      5.46698774      8.26358106      6.59820497
  H      6.60440760      6.40138989      5.38381954
  H      7.24158841      5.08842135      6.40191144
  H      5.73832830      4.09476407      4.72515831
  H      4.45910426      5.24632609      5.12095883
  H      4.93030104      4.00886675      6.29655766
  H      4.49238351      7.11290706     11.18233227
  H      6.18349276      6.54332991     11.27406762
  H      4.88302116      5.37422990     10.98083653
  N      7.99494780      2.51335847      8.90193267
  C      7.36278315      2.25246904      7.76410969
  N      8.25895234      2.02609495      6.81043180
  C      9.50085771      2.15003071      7.34978681
  C      9.33340306      2.45971422      8.66427502
  C      7.35891316      2.81231411     10.16018384
  C      7.73414035      1.79154358     11.22710972
  C      8.00948546      1.69263570      5.43858545
  H      6.28930619      2.24969426      7.66086703
  H     10.37398676      1.93190024      6.76410522
  H     10.05659343      2.67476638      9.42179975
  H      7.66656191      3.82258981     10.44875108
  H      6.27972257      2.79783113      9.98904016
  H      7.21744152      2.03098603     12.15253206
  H      8.80510904      1.79669157     11.41684394
  H      7.44015775      0.79120229     10.91466985
  H      8.80257708      1.00069207      5.11792179
  H      8.05601047      2.58898578      4.81834262
  H      7.02815519      1.23444837      5.34071902
  N      2.08399906      8.17418815      7.24661504
  C      2.06049783      7.62044470      8.45548001
  N      2.19791268      6.30583028      8.32583732
  C      2.30750306      6.01256125      6.99893211
  C      2.23960444      7.19029608      6.31965396
  C      1.93046045      9.57738443      6.94027654
  C      2.94483408     10.43175483      7.68792164
  C      2.18447674      5.36076170      9.40499388
  H      2.03946771      8.13398446      9.41258544
  H      2.43737426      5.00575074      6.66003726
  H      2.27155838      7.44123511      5.26929343
  H      2.04226882      9.67557629      5.85223741
  H      0.91683982      9.88136923      7.22094108
  H      2.75912243     11.48001056      7.47037597
  H      3.95396459     10.18763902      7.36844982
  H      2.86691818     10.27748521      8.76176151
  H      2.39450253      5.88655988     10.33323916
  H      2.92871997      4.58044505      9.22378471
  H      1.20261530      4.88764193      9.47520570
 Cl      4.22790783      2.82213822      8.48121084
 Cl     10.78275524     -0.00060792      5.22982350
 Cl      8.35929013      5.67391166      8.96935997
 Cl      2.15173884      9.01480098      3.65671171
 Cl      2.76833301      8.77872287     11.29363605

