#B3LYP/6-31+G(d) OPT FREQ

62, Energy =    -96.24718103 au

0 1
  N      4.56635661      3.58414057      6.47441322
  C      4.80234571      3.46571252      7.77814504
  N      3.65659687      3.19823103      8.39998425
  C      2.65710964      3.17866426      7.47029803
  C      3.22852142      3.41374960      6.26253747
  C      5.53497024      3.89243559      5.45269891
  C      6.39254107      2.67668829      5.11638970
  C      3.46795993      3.11983885      9.81924933
  H      5.76495015      3.50939071      8.24299064
  H      1.63474867      3.00326566      7.75578198
  H      2.80516357      3.52441686      5.28202902
  H      4.97914741      4.21662775      4.56976238
  H      6.15884964      4.71510305      5.81148284
  H      7.11369925      2.94134781      4.34860757
  H      5.76879755      1.86807876      4.74083893
  H      6.93239792      2.32545327      5.99434273
  H      2.40769505      2.98007201     10.02030276
  H      3.81677157      4.05182645     10.26878012
  H      4.03321200      2.28777461     10.24118648
  N      1.03231238      5.95183359      8.20657209
  C      2.18888488      6.48811949      7.82914087
  N      2.27363844      6.44523005      6.50537637
  C      1.13674863      5.88024591      6.01893790
  C      0.35431614      5.57174367      7.08932818
  C      0.56397583      5.78035956      9.55839541
  C     -0.46526120      6.84413956      9.92367099
  C      3.39568375      6.87530788      5.72337055
  H      2.99591012      6.79463747      8.47231856
  H      1.01894604      5.69609818      4.97054249
  H     -0.58715905      5.07007167      7.15747160
  H      0.11748513      4.77991934      9.61809430
  H      1.42587252      5.83900789     10.22461083
  H     -0.79438968      6.69329250     10.94737802
  H     -1.33190424      6.77536735      9.27101568
  H     -0.03850933      7.84187158      9.83786566
  H      3.28801501      7.92312957      5.44082244
  H      3.43854470      6.26502291      4.81932194
  H      4.29848282      6.75239672      6.32049941
  N     -1.18387954      3.75335020      3.40424982
  C     -2.29024764      3.66776396      4.18732533
  N     -1.93091771      3.12075910      5.37535639
  C     -0.58952800      2.86326041      5.32882883
  C     -0.12611710      3.25697241      4.11791908
  C     -1.10546284      4.35422284      2.10004998
  C     -0.42647486      5.72056074      2.15861025
  C     -2.79345795      2.83904146      6.48413320
  H     -3.27298217      3.98590655      3.91645068
  H     -0.08222132      2.45041951      6.17589860
  H      0.87118794      3.27858746      3.72248691
  H     -0.52606246      3.69402675      1.44851999
  H     -2.12140226      4.44094724      1.70432263
  H     -0.43171185      6.17724375      1.17311736
  H      0.60718463      5.60163519      2.47787566
  H     -0.94322688      6.37726563      2.85533491
  H     -2.17468213      2.73501770      7.37960908
  H     -3.34506233      1.90929199      6.32537895
  H     -3.50697522      3.65069698      6.62513956
 Cl      2.75207212      4.66852518      3.22796082
 Cl     -0.36364945      2.71247169      8.78771469
 Cl     33.50814830     -8.66500575    -39.02592721
 Cl      5.12155391      5.98353137      8.60743997
 Cl    -19.70592487     29.94836026     21.22685240

