#B3LYP/6-31+G(d) OPT FREQ

62, Energy =    -96.27196171 au

0 1
  N      7.09503337      2.31023931      1.67896858
  C      7.72002606      2.12806386      0.51792219
  N      7.29789564      3.04493720     -0.34604113
  C      6.37528783      3.83060083      0.26858787
  C      6.24803093      3.36999426      1.54309514
  C      7.27457869      1.57838020      2.91123268
  C      8.56424194      0.77677220      2.92359103
  C      7.77695679      3.19862250     -1.68827413
  H      8.54102900      1.46287281      0.30710648
  H      5.94485679      4.67481963     -0.23233189
  H      5.67898063      3.72457574      2.37745827
  H      7.26370526      2.31748962      3.72234313
  H      6.41358318      0.91459704      3.05202527
  H      8.72464119      0.37141957      3.91859196
  H      9.40884908      1.40947153      2.66746554
  H      8.52597694     -0.04836263      2.21648107
  H      7.74811537      4.26029416     -1.94137083
  H      7.14611504      2.64621268     -2.38623137
  H      8.79554319      2.81305922     -1.73240246
  N      8.45331279      6.15589301      1.91641559
  C      9.03700726      6.44191404      0.75422007
  N      9.77140605      5.40325874      0.37492907
  C      9.65967683      4.42673715      1.31818487
  C      8.82954930      4.89828559      2.28589674
  C      7.51100586      6.98589273      2.62771524
  C      6.19877269      7.10070316      1.85750973
  C     10.48958426      5.28105972     -0.86003202
  H      8.92290602      7.35178436      0.20318517
  H     10.14858839      3.47970940      1.17750068
  H      8.45743904      4.46280832      3.19426182
  H      7.33837301      6.51661276      3.59912067
  H      7.95408303      7.97605162      2.77160242
  H      5.59704900      7.90972407      2.26225539
  H      5.64059909      6.17262917      1.93526382
  H      6.39205325      7.28935260      0.80399356
  H     10.73551951      4.22864164     -1.00691906
  H     11.40622925      5.87260615     -0.83640158
  H      9.84809623      5.63803761     -1.66620137
  N      3.38074045      4.60782645      5.49817834
  C      2.60360237      4.86375988      6.54981608
  N      2.67437905      6.17085177      6.83218872
  C      3.43253925      6.76870174      5.85938387
  C      3.87482623      5.79302677      5.03116079
  C      3.57222240      3.32958216      4.86347208
  C      2.67780842      3.21130797      3.63389832
  C      1.83708935      6.82139403      7.79602428
  H      2.18620674      4.12168084      7.19724414
  H      3.59824943      7.82582224      5.84047881
  H      4.53753855      5.83465613      4.19271409
  H      4.63364846      3.25291373      4.60617185
  H      3.31796237      2.55292434      5.58755776
  H      2.73757704      2.20829987      3.22012826
  H      2.97470499      3.92617876      2.87015896
  H      1.64974725      3.42008894      3.92178778
  H      0.79889339      6.57835914      7.54885576
  H      1.98997711      7.89694969      7.74926336
  H      2.05884264      6.46180374      8.80214277
 Cl     10.67379914      1.79885677     -0.41570730
 Cl     15.54487579     28.00690688     28.78285253
 Cl      7.29687037      6.51601746     -1.49889403
 Cl      0.22890208      4.82568876      5.74107617
 Cl      6.75432924      4.31805146      4.81893355

