62
Energy =    -96.27330561 au
  N      8.09565002      2.84736384      1.47190451
  C      7.35468532      2.06720193      2.25420155
  N      7.16181613      2.67999848      3.41670366
  C      7.80009145      3.88221503      3.38292344
  C      8.38876443      3.98544342      2.16085014
  C      8.57464431      2.59322944      0.13459345
  C      7.53096761      1.93091316     -0.74912801
  C      6.36475073      2.17995864      4.49993698
  H      6.92454900      1.10455915      2.02356759
  H      7.74639602      4.57237053      4.19757202
  H      8.95484493      4.77041216      1.68162331
  H      8.87937793      3.56707011     -0.27661974
  H      9.46289738      1.95724299      0.19837194
  H      7.99661643      1.63017250     -1.68257001
  H      6.72032501      2.62013310     -0.97797413
  H      7.10638272      1.04721888     -0.27062035
  H      5.60489279      2.92797945      4.73274504
  H      6.98554678      2.01146243      5.38163493
  H      5.90058902      1.24508054      4.18546141
  N      3.64584779      3.58781164      1.80096562
  C      3.73275274      2.37227934      2.32083194
  N      2.76057046      2.20616758      3.20950627
  C      2.03366870      3.35990750      3.25785950
  C      2.59438882      4.23141601      2.37481594
  C      4.59521610      4.16762500      0.88448857
  C      3.92572694      4.71121963     -0.36752829
  C      2.56937843      1.01169461      3.97849992
  H      4.45521769      1.60375710      2.08555316
  H      1.19396769      3.48903626      3.91372314
  H      2.31333616      5.23782736      2.10912209
  H      5.11015127      4.96353045      1.43098747
  H      5.31915085      3.38804838      0.63525738
  H      4.67926932      5.15207283     -1.01257205
  H      3.19184382      5.47331294     -0.11689545
  H      3.42910047      3.91204498     -0.91286309
  H      3.34070044      0.29262075      3.69390593
  H      1.59058314      0.58522979      3.77997194
  H      2.65569932      1.22974152      5.03904371
  N      4.14698266      8.25919941      3.47409777
  C      4.55775727      7.59624653      2.39840661
  N      5.86654383      7.76977611      2.25049036
  C      6.31197925      8.53496344      3.29040638
  C      5.23233855      8.84387471      4.05876600
  C      2.78918324      8.27151534      3.96005367
  C      2.66557498      7.41201968      5.21448874
  C      6.69627732      7.19169715      1.23173333
  H      3.87001528      7.09146632      1.73042497
  H      7.34703881      8.78770523      3.41267739
  H      5.16352407      9.42961338      4.95479216
  H      2.49510370      9.30814603      4.16067404
  H      2.16493417      7.86653689      3.15376251
  H      1.61872246      7.25194057      5.45456504
  H      3.15817867      7.88000963      6.06652066
  H      3.13780649      6.45030303      5.02958611
  H      7.13925346      6.25616952      1.57893058
  H      7.51325447      7.86054182      0.97389822
  H      6.11069257      6.98759109      0.33794847
 Cl      5.31414375     -0.41054167      2.39244054
 Cl      1.74984224      7.13717828      0.96416481
 Cl      5.09530567      5.22400296      4.02127935
 Cl     -8.79864360    -21.96522361     27.90149752
 Cl      9.28762240      5.86816165     -0.24091634
