62
Energy =    -96.23921004 au
  N      5.67709854      7.82851332      2.62186670
  C      5.58581168      8.93563725      3.37638543
  N      6.57196340      9.77644940      3.03500105
  C      7.30355827      9.20190976      2.04330156
  C      6.74344913      7.99105865      1.78018988
  C      4.74025243      6.73447746      2.60426347
  C      3.58139203      7.00654523      1.65118014
  C      6.84984050     11.06547230      3.59970324
  H      4.84365247      9.10752167      4.12860189
  H      8.12776907      9.75668384      1.60734787
  H      7.02281193      7.23621995      1.07526140
  H      5.25650032      5.82656356      2.28440045
  H      4.36240832      6.56809153      3.61551895
  H      3.00720054      6.09129800      1.55120466
  H      3.95696363      7.29400293      0.67151107
  H      2.93307208      7.79545687      2.02462006
  H      7.61981801     11.53445549      2.96717490
  H      7.22994202     10.96393289      4.61669385
  H      5.94858243     11.67751585      3.61307262
  N      0.39665234      2.08961083      2.47560742
  C      1.67814576      1.74122334      2.54650833
  N      1.79628633      0.45306465      2.24561095
  C      0.55169054     -0.03317079      1.97842069
  C     -0.32866736      0.99675040      2.12261700
  C     -0.13776852      3.41425815      2.67972680
  C      0.30208038      4.33959536      1.55167995
  C      3.02722833     -0.28123230      2.16947637
  H      2.49922858      2.40062011      2.76458759
  H      0.39645846     -1.05293905      1.69306987
  H     -1.40485507      1.06958331      2.05142450
  H     -1.23367052      3.31084048      2.70532485
  H      0.22302566      3.79453791      3.63863256
  H     -0.07959922      5.34013331      1.73172676
  H     -0.09287019      3.98618792      0.60279134
  H      1.38939644      4.38195385      1.49223695
  H      3.85943531      0.41083478      2.27784359
  H      3.09526068     -0.78571144      1.19371828
  H      3.07068262     -1.03223326      2.95878092
  N      6.13297388      2.88373564     -0.52334074
  C      4.82405489      3.12012015     -0.59859403
  N      4.17885794      1.96783796     -0.73074416
  C      5.08850245      0.95417242     -0.68248287
  C      6.31241364      1.52449102     -0.55100869
  C      7.16538102      3.86668609     -0.30661847
  C      7.64214350      3.84108148      1.14253727
  C      2.75955361      1.78621843     -0.83857724
  H      4.37092898      4.09026051     -0.62519033
  H      4.74693640     -0.07040492     -0.74589756
  H      7.28460821      1.08472978     -0.47665600
  H      7.99751301      3.65852664     -0.98804637
  H      6.74677786      4.84631599     -0.55144583
  H      8.30353971      4.68050591      1.33752715
  H      8.17491120      2.91783206      1.35381625
  H      6.78147876      3.89532748      1.80432961
  H      2.26919229      2.24951224      0.01697850
  H      2.56194082      0.70920503     -0.85825509
  H      2.38419000      2.24443845     -1.75362292
 Cl     19.40189058    -10.48203602     36.73021232
 Cl     -3.19969699      2.31335841      2.59977346
 Cl      9.11957164     11.68208651      1.37987254
 Cl      4.30277411      3.58487516      1.98957168
 Cl      3.08357019     -1.53645095     -0.86471091
