#B3LYP/6-31+G(d) OPT FREQ

62, Energy =    -96.26295008 au

0 1
  N      2.04374427      4.00985706      7.83146794
  C      3.02554997      4.63415226      8.48398969
  N      2.59247529      4.96093803      9.70094155
  C      1.33573970      4.45020988      9.85890002
  C      0.98993567      3.85802717      8.68924393
  C      2.12020443      3.56920095      6.46486377
  C      1.64202751      4.67382106      5.52420497
  C      3.37827139      5.66189227     10.67182145
  H      3.91753702      5.01400545      8.03684706
  H      0.79400254      4.55025257     10.77669614
  H      0.09338673      3.34793995      8.40296256
  H      3.16401426      3.31033693      6.26445515
  H      1.50948553      2.66800456      6.35386703
  H      1.91426626      4.44354969      4.49790999
  H      2.09673681      5.61807763      5.81501717
  H      0.56161329      4.78869297      5.58452294
  H      4.28277549      5.08699214     10.88139659
  H      2.80153881      5.79350658     11.58545843
  H      3.65435965      6.63602128     10.26317905
  N      7.27756385      4.89590834      7.36324755
  C      8.24897937      5.43136466      6.60627341
  N      8.34857668      4.72814020      5.47446665
  C      7.49347011      3.65862304      5.56424651
  C      6.83077570      3.76006866      6.74059399
  C      7.01226841      5.22964389      8.73980220
  C      6.50463967      6.65640103      8.90359774
  C      9.30478808      4.93839077      4.42411910
  H      8.66894625      6.40435174      6.74766690
  H      7.43202492      2.92863331      4.78414649
  H      6.09659267      3.13202764      7.20886903
  H      6.28182706      4.50737547      9.11055885
  H      7.95604244      5.10683619      9.28272844
  H      6.36891873      6.86961135      9.96042510
  H      5.55334556      6.80268128      8.39751715
  H      7.23376953      7.35929651      8.50790483
  H      9.78856642      3.99143254      4.18160332
  H     10.06343536      5.63571873      4.77380304
  H      8.82291136      5.32703392      3.51783384
  N      5.82723521      6.95436192      4.43627886
  C      5.24461397      7.49705510      5.50303602
  N      5.90843421      8.60125051      5.84215431
  C      6.94541683      8.75900626      4.96375820
  C      6.88998221      7.72659407      4.08125587
  C      5.37043968      5.79698666      3.70769527
  C      4.09639138      6.12711511      2.93679223
  C      5.54582616      9.47449232      6.92223658
  H      4.37004101      7.15527324      6.03824931
  H      7.63157644      9.57709025      5.03245076
  H      7.48686107      7.45376193      3.22081018
  H      6.16688450      5.53207156      3.00065502
  H      5.19430313      4.98137010      4.41269428
  H      3.75110899      5.24048069      2.41347350
  H      4.30443166      6.89769991      2.19887452
  H      3.31221617      6.47564077      3.60589977
  H      6.34557066      9.52407955      7.66122129
  H      4.64241512      9.07537294      7.38883759
  H      5.34888167     10.47843400      6.54441014
 Cl      2.90552782      7.45451365      7.64974554
 Cl      7.87972279      6.05167306      1.56466910
 Cl    -21.27312095    -19.69211123     -7.81290045
 Cl      4.47068850      2.67191676      9.02914585
 Cl     10.27286519      4.88076490      7.90640193

