#B3LYP/6-31+G(d) OPT FREQ

62, Energy =    -96.26529891 au

0 1
  N      6.04203458      7.93893962      5.12144031
  C      5.55972191      7.64820787      6.32594394
  N      6.12730283      6.53118420      6.76031950
  C      6.99303179      6.09126741      5.80618154
  C      6.94095610      6.97434163      4.77123657
  C      5.66787004      9.10492859      4.35328558
  C      6.85637199      9.68153274      3.59917415
  C      5.82718030      5.83733361      7.97937629
  H      4.85152053      8.26585285      6.85275274
  H      7.58443446      5.20886351      5.96664076
  H      7.42682214      6.96003997      3.81284517
  H      4.88830523      8.82632486      3.63800108
  H      5.24712739      9.82654322      5.06034941
  H      6.56435583     10.61560442      3.12658898
  H      7.18889160      8.99260106      2.82566921
  H      7.68114554      9.87893887      4.28041291
  H      6.50010240      4.98253416      8.06598970
  H      4.78889250      5.50085835      7.93638603
  H      5.95432649      6.50303307      8.83264415
  N      1.61900346      8.04738531      8.55324325
  C      1.47962590      8.47888430      7.30585740
  N      0.25980345      8.18318213      6.87751246
  C     -0.39747055      7.51891262      7.86591730
  C      0.45720668      7.43061990      8.91869112
  C      2.82794304      8.16257095      9.32952097
  C      2.55686633      8.71607704     10.72198137
  C     -0.30445654      8.44810637      5.58551273
  H      2.24584562      9.02109451      6.77684054
  H     -1.42571948      7.22878551      7.73460342
  H      0.32967997      6.96666239      9.87424725
  H      3.29736957      7.17576762      9.38664471
  H      3.48839781      8.84247674      8.78117896
  H      3.50106510      8.84814668     11.24360717
  H      1.92864792      8.04750239     11.30758069
  H      2.06674869      9.68411210     10.64772936
  H      0.01696471      9.42561146      5.23024852
  H     -1.39561108      8.41046910      5.68548862
  H      0.02095945      7.68317402      4.87842337
  N      4.69236997      4.95058851      3.63489275
  C      4.48283512      4.18863824      4.70754046
  N      5.49555902      3.34470170      4.84862037
  C      6.37458849      3.57059877      3.83247811
  C      5.87284690      4.58108450      3.06823120
  C      3.77738677      5.99488690      3.22525270
  C      4.11303411      6.56737908      1.86083397
  C      5.65982999      2.39768906      5.91001254
  H      3.67147870      4.35196791      5.40285291
  H      7.29046662      3.02552422      3.74415431
  H      6.31823244      5.09864602      2.23545371
  H      2.76914404      5.56728892      3.22789318
  H      3.78725437      6.76736413      3.99989373
  H      3.44754852      7.39954542      1.64638196
  H      3.98060038      5.81353297      1.08705819
  H      5.14210812      6.92179696      1.81476590
  H      6.55279809      2.66153290      6.50674408
  H      5.79512086      1.39534491      5.50372683
  H      4.78330369      2.42468241      6.55175490
 Cl     -3.43868370      7.99434719      6.70218326
 Cl      2.73339480      5.94348600      6.55924707
 Cl      8.27011542      3.38990449      7.51704847
 Cl      7.50547600      6.88666748      1.39420166
 Cl      4.12474202     10.45480478      7.18445762

