#B3LYP/6-31+G(d) OPT FREQ

62, Energy =    -96.27208719 au

0 1
  N      4.25348791      4.05020062      2.99951649
  C      4.66681661      5.13590001      2.34773712
  N      3.73929473      6.08430065      2.44389308
  C      2.71366855      5.60919559      3.20150317
  C      3.03547975      4.33790133      3.55579706
  C      5.03844916      2.86883110      3.28731711
  C      5.59717429      2.97279866      4.69805596
  C      3.84482310      7.43054321      1.96227127
  H      5.58538489      5.21504091      1.80456735
  H      1.89227082      6.25883898      3.45652173
  H      2.50541179      3.62038977      4.14704344
  H      4.40077659      1.98751539      3.17782408
  H      5.85209641      2.81503378      2.56270895
  H      6.29102579      2.16124112      4.91312354
  H      4.79354396      2.93949190      5.42965676
  H      6.12756885      3.91643065      4.79503125
  H      3.08567154      8.02602247      2.47753979
  H      3.68344314      7.47211775      0.88427343
  H      4.84068936      7.80287127      2.20066222
  N      7.85190197      6.17845608      6.78742957
  C      7.04745997      5.51419744      7.60685468
  N      7.25159409      4.21011279      7.44738732
  C      8.21481630      4.03570723      6.50086889
  C      8.59028255      5.27560521      6.08479085
  C      7.91373921      7.61306614      6.68138327
  C      9.18930714      8.15323217      7.31735696
  C      6.60172176      3.13459598      8.14137307
  H      6.32728807      6.00912770      8.24404299
  H      8.49475818      3.04294274      6.18953341
  H      9.28914607      5.57317759      5.33142064
  H      7.86589355      7.87216903      5.62184928
  H      7.03244764      8.00510228      7.19732837
  H      9.22107791      9.23365083      7.20713078
  H     10.07341328      7.72831509      6.84468618
  H      9.20837931      7.91476142      8.37843201
  H      6.81832259      2.20793818      7.59539864
  H      5.52913271      3.31152628      8.18694701
  H      6.99081493      3.05161084      9.15721336
  N      2.87904041      7.44376732      6.55675830
  C      3.92197015      7.64772787      5.76431177
  N      4.18657914      8.94299515      5.71523256
  C      3.28769986      9.59212636      6.49955012
  C      2.46768221      8.64713902      7.02807767
  C      2.27200191      6.17078736      6.84619134
  C      3.31410711      5.18451128      7.35724720
  C      5.23022719      9.54345525      4.93783429
  H      4.49945642      6.90590274      5.24397663
  H      3.29340185     10.65511647      6.62373947
  H      1.63467206      8.74803914      7.69228947
  H      1.50630124      6.33849431      7.60677048
  H      1.78734632      5.80602285      5.93466506
  H      2.83121776      4.28241329      7.72425604
  H      3.87066110      5.65455044      8.16508170
  H      4.01189493      4.92154929      6.56729933
  H      5.88053952     10.13668016      5.58144185
  H      4.79556031     10.18350620      4.16851636
  H      5.80619340      8.74603781      4.46775692
 Cl    -10.34212719     -8.37051342    -25.11949452
 Cl      1.38758704      8.40759876      4.01887702
 Cl      6.47861949      6.46994747      3.90286961
 Cl      5.15113464      7.84100566      8.72846586
 Cl      7.80906312      0.79919644      6.12178166

