#B3LYP/6-31+G(d) OPT FREQ

62, Energy =    -96.26475364 au

0 1
  N      0.52487251     -0.86660118      4.12422177
  C      1.12247901     -1.35084411      5.20654960
  N      1.75283935     -0.36531446      5.83593323
  C      1.51204428      0.79340682      5.15818743
  C      0.74635868      0.47837459      4.08354102
  C     -0.24448551     -1.64598723      3.19284205
  C     -1.69721604     -1.74121402      3.64919957
  C      2.41389672     -0.51117266      7.09777756
  H      1.15986768     -2.38287948      5.48187701
  H      1.89422813      1.73882195      5.48404469
  H      0.35607281      1.09819161      3.30300558
  H     -0.16353189     -1.18061510      2.20649386
  H      0.21657348     -2.63503448      3.14777595
  H     -2.21800046     -2.52502495      3.10503058
  H     -2.21290987     -0.79579017      3.49098830
  H     -1.71811084     -1.96440674      4.71503280
  H      2.80220599      0.45129121      7.42192064
  H      3.23077431     -1.22731540      7.00841693
  H      1.67994404     -0.88231510      7.81843442
  N      4.99330187      2.33392901      5.24784609
  C      4.45193629      2.33101123      4.03483296
  N      4.36711049      1.07504454      3.60707022
  C      4.86561146      0.25462352      4.57294040
  C      5.25822443      1.04802077      5.60715332
  C      5.22356216      3.49723252      6.06547045
  C      4.15032847      3.62294851      7.14124427
  C      3.86013266      0.63644015      2.33905920
  H      4.17612367      3.22579221      3.48167777
  H      4.84552542     -0.81065683      4.44871995
  H      5.76673714      0.82083933      6.52091863
  H      6.21527845      3.37839863      6.52120881
  H      5.20148107      4.37177705      5.41411867
  H      4.35212995      4.49939840      7.74964397
  H      4.15068186      2.74876892      7.78863416
  H      3.16504748      3.73582190      6.69123003
  H      3.44605764     -0.37000467      2.46525558
  H      4.66629962      0.59608317      1.60492926
  H      3.09939009      1.33039199      1.99030781
  N      7.20580081      7.12480117      4.28015587
  C      6.90970742      5.91423907      3.81370561
  N      7.87482169      5.07134265      4.16525794
  C      8.80917612      5.76597715      4.87589588
  C      8.38653152      7.05819065      4.94923081
  C      6.39738993      8.31222914      4.14405161
  C      5.07146935      8.13891545      4.87463670
  C      7.93272962      3.67348996      3.85073513
  H      6.01067514      5.64898861      3.26687707
  H      9.67108376      5.28491780      5.28805088
  H      8.82032326      7.95221005      5.37010771
  H      6.98424894      9.14375759      4.55413278
  H      6.21103819      8.48880206      3.08141466
  H      4.48982214      9.05304544      4.79574295
  H      5.24609523      7.92864104      5.92730177
  H      4.50103134      7.32177628      4.43749284
  H      8.00877369      3.08387127      4.77863335
  H      8.80960578      3.46568309      3.23645303
  H      7.03344174      3.39572371      3.30670732
 Cl     -0.83200648     -1.49228627      7.01646978
 Cl      8.87315417     10.24865945      5.32543471
 Cl      3.10765411     -2.38285057      3.45296612
 Cl      8.12853396      2.15883100      6.75231383
 Cl      4.03062684      5.12336375      2.56505632

