62
Energy =    -96.25862687 au
  N      5.33602110      7.17928871      7.03284359
  C      5.90185737      7.02194205      8.22281721
  N      6.58343438      5.88009531      8.22288620
  C      6.45396973      5.29791546      6.99758728
  C      5.66355011      6.11336993      6.24736568
  C      4.53088490      8.31564081      6.65362866
  C      5.08511466      8.97474862      5.39800975
  C      7.33602485      5.33335857      9.31543586
  H      5.78294757      7.74202257      9.03304592
  H      6.92302243      4.35356075      6.79279729
  H      5.31494859      6.02568986      5.23377009
  H      3.50973520      7.97410432      6.46470306
  H      4.52911629      8.99963045      7.50752279
  H      4.49518598      9.85524989      5.16001109
  H      5.03735223      8.28592026      4.55717605
  H      6.11577353      9.28141249      5.55341463
  H      8.23314180      5.92920582      9.49520260
  H      7.62458187      4.31037546      9.05042493
  H      6.72952811      5.33544880     10.22089652
  N      4.80950089      2.31678595      9.46257747
  C      5.10279972      1.68994102      8.32483493
  N      4.69367314      2.43229601      7.30242774
  C      4.05991402      3.53296882      7.80143387
  C      4.13386797      3.46264281      9.15381367
  C      5.07857984      1.77704684     10.76730905
  C      6.52744349      2.02823791     11.17518241
  C      4.89339175      2.09976673      5.92333302
  H      5.69162395      0.80238111      8.24001996
  H      3.61122248      4.26638519      7.16429139
  H      3.76072425      4.12750984      9.90567360
  H      4.38576565      2.23220353     11.47944804
  H      4.86702834      0.70578811     10.70999674
  H      6.80201444      1.39036610     12.01070175
  H      6.67301682      3.06613968     11.46440196
  H      7.18315364      1.81837659     10.33378204
  H      5.95666453      1.92092126      5.75963830
  H      4.56125846      2.92236566      5.29520394
  H      4.33461459      1.19427631      5.68311479
  N      7.61434604      8.54008959      0.85074872
  C      7.14122533      7.73973559      1.79896579
  N      8.16052285      7.15223211      2.41419718
  C      9.31769679      7.60157129      1.84390931
  C      8.97504415      8.47558389      0.85964547
  C      6.84359719      9.38820512     -0.02430543
  C      7.06831664     10.85511678      0.32467085
  C      8.02374895      6.20551465      3.48592343
  H      6.10779533      7.52248016      2.04933510
  H     10.28131421      7.27250519      2.17140279
  H      9.55486298      9.05496478      0.14672184
  H      7.18675236      9.22259392     -1.04919040
  H      5.79254409      9.10494758      0.07538069
  H      6.37718313     11.47595729     -0.23888974
  H      8.08463724     11.12498683      0.04186418
  H      6.91739377     11.03127434      1.38785684
  H      8.64653156      5.33268285      3.30333988
  H      6.97330084      5.91030622      3.53898137
  H      8.31445949      6.65522534      4.43497927
 Cl      3.23041622     -0.07654138      8.52768969
 Cl      9.96211047     10.38501841     -1.48426230
 Cl      7.90598228      2.40457657      7.83593812
 Cl      5.04707520      9.46723467      9.96136640
 Cl      4.66158587      6.24602152      3.03493313
