#B3LYP/6-31+G(d) OPT FREQ

62, Energy =    -96.26399070 au

0 1
  N      7.80472677      8.60734601      3.34298909
  C      7.72166017      9.61582307      4.20351880
  N      6.45904087      9.77071628      4.56824218
  C      5.71374529      8.82571864      3.93330102
  C      6.55999379      8.09307662      3.16208498
  C      9.00299726      8.07530552      2.74234016
  C     10.09853050      7.90680048      3.78910733
  C      6.00521668     10.77029517      5.48892777
  H      8.51500339     10.26393561      4.51847379
  H      4.65860263      8.73253469      4.08718981
  H      6.40112535      7.24887256      2.51370164
  H      8.73064949      7.11400650      2.29924974
  H      9.33258366      8.75151045      1.94551656
  H     10.87575413      7.24364338      3.41871358
  H      9.66770877      7.48507063      4.69425968
  H     10.54656186      8.86568502      4.03770460
  H      6.26687341     10.47931148      6.50730043
  H      4.92647270     10.88594737      5.40575592
  H      6.51479304     11.70642420      5.23027068
  N      7.94566274      1.96609392      6.53376532
  C      7.97877420      2.40962320      5.28046709
  N      8.24022890      3.71563612      5.29275301
  C      8.38204050      4.10851188      6.59032744
  C      8.19868088      3.00846118      7.37000606
  C      7.71020001      0.60943142      6.95951850
  C      9.02553871     -0.15703847      7.04386369
  C      8.39196248      4.61439488      4.18292928
  H      7.74769462      1.80127526      4.42455818
  H      8.53658529      5.14216407      6.83628604
  H      8.14634582      2.88124026      8.43574144
  H      7.23738721      0.65693001      7.94654375
  H      7.04391072      0.14002500      6.23161393
  H      8.82827592     -1.17262105      7.37432728
  H      9.69721553      0.31653412      7.75778512
  H      9.50915815     -0.19615584      6.06876598
  H      7.79269486      4.31509672      3.32542245
  H      9.43935363      4.66046880      3.87918207
  H      8.07567767      5.60579721      4.51216144
  N      5.04883244      3.84235722      6.21746156
  C      4.93557946      2.91195761      5.26583589
  N      5.02835191      3.49405670      4.07559172
  C      5.20404278      4.82708113      4.26305092
  C      5.21894211      5.04928061      5.60591776
  C      4.94721563      3.59796243      7.64275542
  C      5.32966693      4.80644707      8.47915013
  C      4.97413726      2.84772856      2.79638511
  H      4.86156367      1.84827022      5.40824382
  H      5.36079634      5.48796566      3.43438715
  H      5.41460542      5.96099333      6.13137312
  H      3.91690710      3.29942226      7.86584683
  H      5.59315889      2.76095811      7.92746092
  H      5.48176776      4.46420411      9.49845475
  H      4.55542631      5.57124582      8.46804074
  H      6.26159771      5.24102146      8.12941319
  H      5.57394513      3.42641962      2.09125128
  H      3.94502557      2.80955583      2.43587887
  H      5.35478626      1.83020785      2.89900313
 Cl      6.58559242      1.74682508      9.92458973
 Cl      7.56076197      7.28156764      6.28791316
 Cl      5.96449465      0.00941450      4.16155023
 Cl      8.04483928     12.67931202      3.81447415
 Cl      6.73636926      5.33932220      1.28017589

