#B3LYP/6-31+G(d) OPT FREQ

62, Energy =    -96.25593126 au

0 1
  N      6.76568787      8.59307426      6.29185147
  C      5.73051636      8.71904210      7.12061122
  N      6.10443690      9.44103279      8.17638900
  C      7.41413340      9.79044467      8.00946063
  C      7.82864030      9.24850186      6.83278800
  C      6.81711245      7.78397801      5.10256931
  C      7.03124282      8.62891874      3.85293649
  C      5.25846893      9.75021871      9.29347963
  H      4.74519653      8.28799355      7.02483291
  H      7.95259828     10.36307891      8.73540450
  H      8.79217629      9.25644874      6.37111284
  H      7.64551014      7.07906616      5.24851936
  H      5.87776152      7.23344013      5.03317854
  H      7.06908283      7.98124120      2.98192621
  H      7.96790194      9.17651939      3.91402957
  H      6.21654242      9.33937377      3.72426375
  H      5.02394339     10.81567277      9.31654894
  H      5.75308284      9.47472539     10.22458440
  H      4.33458669      9.17689114      9.18591573
  N      5.99233227      5.15500450      7.62880768
  C      4.85004752      5.32619302      6.97081379
  N      4.87093803      4.58327128      5.86983684
  C      6.05290999      3.91188386      5.82540430
  C      6.75997426      4.27423674      6.93124407
  C      6.35928930      5.81339728      8.85665750
  C      6.51176273      4.81845925     10.00092454
  C      3.84167883      4.49160863      4.87748880
  H      4.05411221      5.98758111      7.28912028
  H      6.24824471      3.19542782      5.05201531
  H      7.75214575      4.02096823      7.23925529
  H      7.31463054      6.32179349      8.67061287
  H      5.57718727      6.54009733      9.08254990
  H      6.81080036      5.34714316     10.90161193
  H      7.27559363      4.08142176      9.76716062
  H      5.57345239      4.30393201     10.19863988
  H      3.84030479      3.46084527      4.49588823
  H      4.05220865      5.17109096      4.04976377
  H      2.88199513      4.74924011      5.31793212
  N      1.68463176      2.25116223      6.82756329
  C      1.28056635      3.15299397      7.72818240
  N      2.33181643      3.53162100      8.46085852
  C      3.40697350      2.77198126      8.07549013
  C      3.00579436      1.97602244      7.05618628
  C      0.83995993      1.56100598      5.88696892
  C      1.11358158      2.00979972      4.45660046
  C      2.26753357      4.45032556      9.56088506
  H      0.34150097      3.66472369      7.70787846
  H      4.35754693      2.84406778      8.56124321
  H      3.56037336      1.30487663      6.42933859
  H      1.03509479      0.48966828      5.97939995
  H     -0.19544651      1.74914241      6.17937614
  H      0.47293063      1.46182164      3.77128722
  H      2.15193134      1.80887643      4.19811688
  H      0.91946888      3.07386274      4.34115788
  H      2.28196915      5.48390025      9.20582824
  H      3.11735178      4.28968061     10.22058427
  H      1.34557775      4.26213357     10.11127031
 Cl      9.03166604      6.67185931      7.19399153
 Cl      6.29316984     29.34149367      5.82104652
 Cl      0.01609409      1.79465547      9.37342952
 Cl      2.89163543      7.63093109      8.08854956
 Cl      4.58992209      1.42745664      4.15759231

