#B3LYP/6-31+G(d) OPT FREQ

62, Energy =    -96.27419817 au

0 1
  N      8.85935294      4.18782476      2.85306507
  C      9.08699520      3.18709704      2.00448119
  N      7.94309528      2.86435188      1.39373002
  C      6.95138842      3.64384977      1.92944751
  C      7.52143263      4.47296728      2.83671976
  C      9.83202413      4.80918826      3.71651645
  C      9.94230674      6.30299430      3.44049411
  C      7.77746821      1.71269623      0.55644126
  H     10.05044737      2.80351412      1.74267488
  H      5.93015901      3.54996948      1.62534275
  H      7.10279774      5.28176556      3.41766224
  H      9.52292364      4.64875201      4.75272519
  H     10.78640194      4.30139907      3.55909736
  H     10.67287031      6.74544893      4.11149657
  H      8.98142877      6.78579366      3.60768937
  H     10.25367975      6.48381361      2.41385811
  H      8.38336968      1.80086422     -0.34658589
  H      6.73011522      1.60603794      0.28524495
  H      8.10470887      0.83645187      1.12375965
  N      6.58537492      5.27234877      7.30942731
  C      5.54853703      5.45608124      6.49868702
  N      4.48736112      4.84609820      7.01343647
  C      4.85946964      4.25921525      8.18573675
  C      6.18019209      4.52794512      8.37560712
  C      7.91926983      5.77022879      7.07423610
  C      8.43220498      6.55870409      8.27132644
  C      3.16965585      4.78187297      6.45120808
  H      5.60227773      6.03198034      5.58297077
  H      4.16515402      3.66915200      8.74728668
  H      6.86168094      4.25586709      9.16796847
  H      8.57724187      4.91219828      6.90380491
  H      7.87264876      6.38988104      6.17390517
  H      9.40554476      6.97980496      8.03625597
  H      8.53694076      5.90494216      9.13419624
  H      7.75079613      7.37043612      8.51445075
  H      2.78903665      3.76445229      6.59671000
  H      3.20974221      5.02571113      5.39262546
  H      2.50591069      5.48269779      6.95989790
  N      6.62696231      1.36735775      6.20111232
  C      5.93758891      1.20896126      7.32864854
  N      6.73773230      1.46124914      8.35683793
  C      7.97068600      1.78733301      7.88014208
  C      7.89895668      1.73238675      6.52159708
  C      6.10565313      1.19276537      4.86674197
  C      5.03554248      2.23461062      4.56628895
  C      6.38151718      1.39118211      9.74412871
  H      4.86888585      1.03252559      7.39068147
  H      8.75361422      2.09448373      8.54611581
  H      8.64300891      1.87097910      5.76167636
  H      6.95034891      1.26281516      4.17562725
  H      5.67018380      0.19222265      4.79510003
  H      4.62472250      2.05949371      3.57636140
  H      5.45687432      3.23670729      4.59654041
  H      4.23063764      2.15588833      5.29458393
  H      6.95969125      2.14887500     10.28392707
  H      6.62706599      0.40724817     10.14717629
  H      5.31466119      1.56758443      9.85239867
 Cl     -5.64330135     -0.38088044    -26.41288491
 Cl      2.81149959      1.63942618      7.41403605
 Cl      8.58659929      3.72907462     10.47376653
 Cl      9.25959533      1.07737911      3.46676100
 Cl      6.61875604      7.30103419      4.14349586

