62
Energy =    -96.26263484 au
  N      5.92452094      1.28706389      8.01318668
  C      6.22539768      0.13333347      7.42299089
  N      7.37460700      0.28042865      6.77379673
  C      7.81941619      1.55560396      6.95184295
  C      6.90565696      2.18976236      7.73614136
  C      4.75613704      1.53620962      8.82262197
  C      4.76595659      0.65601206     10.06621211
  C      8.05151352     -0.71179246      5.98978010
  H      5.65048340     -0.79040726      7.52878591
  H      8.71072247      1.89028162      6.45581800
  H      6.83717583      3.20183298      8.08799150
  H      4.75515370      2.60079641      9.07229046
  H      3.86783105      1.30452498      8.22969438
  H      3.89578713      0.87858486     10.67744599
  H      5.66237745      0.83676654     10.65562935
  H      4.73245649     -0.39288157      9.77533976
  H      8.72175292     -1.29916691      6.61967135
  H      8.63939037     -0.19654240      5.22349023
  H      7.32324871     -1.37966325      5.53566136
  N      3.36341185      8.88391670      5.43012194
  C      3.18076818     10.11268119      5.90168277
  N      2.52319331     10.83657244      4.99806856
  C      2.27857946     10.04700157      3.91827853
  C      2.80587409      8.81767512      4.19214822
  C      3.98295426      7.78578394      6.13520878
  C      3.05949366      7.23738470      7.21310608
  C      2.14760857     12.21680938      5.11914415
  H      3.51525876     10.46514817      6.85750314
  H      1.72981742     10.44356624      3.08065177
  H      2.87724354      7.91174902      3.61698576
  H      4.19872184      7.01324544      5.38594051
  H      4.91376974      8.13720908      6.58609206
  H      3.59475776      6.46919479      7.76728598
  H      2.17174739      6.79633902      6.76802169
  H      2.75690096      8.01943949      7.90902184
  H      1.47500562     12.45566823      4.27669719
  H      3.02995523     12.85566404      5.06479227
  H      1.63801303     12.38804010      6.06647887
  N      6.81152055      3.90554872      4.89536081
  C      5.72409304      4.37920951      5.49262575
  N      4.77868045      3.45213122      5.47615763
  C      5.26333550      2.36130919      4.81971698
  C      6.54310804      2.64514782      4.45613111
  C      8.06417873      4.59599247      4.70823007
  C      8.59346599      5.16614969      6.01807209
  C      3.46032052      3.65519505      5.99702710
  H      5.62045329      5.32404115      5.98306838
  H      4.67493864      1.48067564      4.66216250
  H      7.29883974      2.05834795      3.96827020
  H      8.77186207      3.86453270      4.30651202
  H      7.91041741      5.39799360      3.97923303
  H      9.49673894      5.73863555      5.82324123
  H      8.83515605      4.36069047      6.70584510
  H      7.86136887      5.81450372      6.49170441
  H      2.91483902      2.71473712      6.00672920
  H      2.95005200      4.38279723      5.36187970
  H      3.55160077      4.05913012      7.00697157
 Cl      9.71990637      1.59202333      4.19750181
 Cl      5.27340589      4.98274602      8.60521888
 Cl      0.37048002     12.38269787      2.47233266
 Cl      4.62664117     -2.45609562      8.21516508
 Cl      4.29442474      5.84992680      3.51390482
