62
Energy =    -96.25481003 au
  N      1.84697745      2.48528217      7.35054897
  C      2.46113484      2.03096529      8.43418938
  N      1.58779951      1.97591225      9.43963127
  C      0.38086538      2.40908847      8.98176075
  C      0.54569364      2.72907978      7.66593985
  C      2.43223462      2.62850492      6.04467752
  C      2.10857517      1.41220587      5.18454966
  C      1.84178043      1.57144448     10.79295252
  H      3.50336416      1.77480714      8.47450222
  H     -0.47752607      2.39573828      9.63121822
  H     -0.12683118      3.14190826      6.93930834
  H      2.00094974      3.52220562      5.58265768
  H      3.51532384      2.72919287      6.16515424
  H      2.61641753      1.50918824      4.22259015
  H      1.03359724      1.34848088      5.00877424
  H      2.45598183      0.49890500      5.67121147
  H      0.87603233      1.29949718     11.25106611
  H      2.27158883      2.39940417     11.35798424
  H      2.52971038      0.72980905     10.81187763
  N      5.18144664      5.47141470      4.51336849
  C      4.45662868      6.53661587      4.18276233
  N      3.32559037      6.12748304      3.61726471
  C      3.32270427      4.76793252      3.58825787
  C      4.49228242      4.35530442      4.15023103
  C      6.46223293      5.44293831      5.18044513
  C      6.67707193      6.67464381      6.04632182
  C      2.22864788      6.94706338      3.19817529
  H      4.77709734      7.56372786      4.26551830
  H      2.46672437      4.22352725      3.24443636
  H      4.86745741      3.37899613      4.39018328
  H      6.47983344      4.52263538      5.78357294
  H      7.25267126      5.38045520      4.42128926
  H      7.61851314      6.57634618      6.58097137
  H      5.87317819      6.76833034      6.77542943
  H      6.71484868      7.57786419      5.43787558
  H      2.41189895      7.97793845      3.49194897
  H      1.32148369      6.55816343      3.68379295
  H      2.09860267      6.88581000      2.11604032
  N      5.75660722      7.33797611      0.11810876
  C      5.54414226      6.34474908     -0.73705903
  N      5.73416675      5.19164574     -0.10782411
  C      6.06514440      5.45744132      1.19012278
  C      6.07976648      6.81041203      1.33342317
  C      5.58785162      8.74494043     -0.14602084
  C      4.32319903      9.26034366      0.53229270
  C      5.59410441      3.90501272     -0.72803434
  H      5.34343563      6.38891287     -1.80839872
  H      6.26157430      4.67818381      1.89761293
  H      6.26576541      7.45498428      2.18207358
  H      6.44913078      9.27798858      0.26303280
  H      5.54684279      8.87925667     -1.22938885
  H      4.14163091     10.28939898      0.23675362
  H      4.46285312      9.22935838      1.61133642
  H      3.46243300      8.65606557      0.25434728
  H      4.70109057      3.40173444     -0.35728387
  H      6.46513325      3.28743037     -0.51414276
  H      5.50721619      4.06951853     -1.80756400
 Cl      6.10048465      9.22932930      3.50438744
 Cl      5.46104373      5.45787149     -3.68781610
 Cl     -1.23558479      1.17031111     11.64747643
 Cl      0.27352134      4.85797755      4.72775534
 Cl      5.81780810      2.37127165      6.50822924
