62
Energy =    -95.99467394 au
  N      6.56587632     14.13877396      6.91351498
  C      6.86834782     14.10678651      5.61020299
  N      7.55414459     12.98496048      5.36917514
  C      7.66739360     12.27518732      6.53222602
  C      7.04166606     13.00308208      7.50890208
  C      5.76728719     15.17730464      7.57467742
  C      4.48638215     14.60401630      8.15138951
  C      7.93770904     12.49609897      4.04975296
  H      6.55405222     14.81745308      4.86738224
  H      8.14982244     11.31587325      6.57164927
  H      6.87991481     12.78494803      8.54822777
  H      6.39102938     15.62692818      8.34674034
  H      5.55807867     15.93138817      6.81948530
  H      3.92278257     15.40712681      8.62421852
  H      4.69269950     13.83889173      8.89684950
  H      3.88056066     14.15626831      7.36980645
  H      7.27176410     11.68176653      3.77745959
  H      8.97013670     12.15927710      4.08674796
  H      7.82202221     13.30034589      3.33210564
  N      2.52794361     12.36422229      6.47216722
  C      3.44087019     11.73825452      5.71992807
  N      4.30715274     11.13002502      6.53633282
  C      3.92522664     11.34783604      7.83092984
  C      2.79965150     12.12679848      7.79143310
  C      1.36762298     13.10256269      5.96037052
  C      0.06641333     12.46120692      6.40476931
  C      5.36249059     10.21450187      6.11792929
  H      3.44125908     11.66960460      4.64712874
  H      4.45466295     10.92050255      8.66258995
  H      2.17426373     12.49257087      8.58455636
  H      1.45209874     14.12969586      6.31414740
  H      1.45785988     13.10382786      4.87658963
  H     -0.76556496     13.03443390      5.99804927
  H     -0.01987248     12.44548707      7.48920498
  H      0.00174075     11.43796606      6.04816640
  H      5.04469866      9.19908246      6.33859963
  H      6.27483484     10.46228350      6.65361268
  H      5.50684126     10.31349065      5.04807962
  N      2.10909392      6.77399439      6.59327372
  C      1.18993366      6.92484550      5.63227283
  N      0.27730663      5.95835350      5.77337707
  C      0.60378661      5.19444472      6.85926142
  C      1.76092589      5.71015326      7.37919915
  C      3.25083781      7.66654228      6.82393694
  C      3.16053906      8.33734593      8.18181862
  C     -0.96993834      5.85806454      5.02417466
  H      1.14574338      7.72454014      4.91523234
  H     -0.01109945      4.37718882      7.18878108
  H      2.32759930      5.42226728      8.24519379
  H      4.15699268      7.06888575      6.72913810
  H      3.23612236      8.39840973      6.01964918
  H      4.02024111      8.99399607      8.30799792
  H      3.16039517      7.60657080      8.98783397
  H      2.25028636      8.92356952      8.26025292
  H     -1.78448068      6.18049149      5.66707848
  H     -1.10759996      4.82759490      4.70809547
  H     -0.91607620      6.51857326      4.16624616
 Cl      4.79357874      5.72179041      8.47378969
 Cl      9.94318348     -0.00908056      4.86877196
 Cl     26.33370382     10.03820758    -22.50648090
 Cl    -10.60871645      8.66234981     29.50928057
 Cl     36.13313131     -3.85104307    -50.18298637
