#B3LYP/6-31+G(d) OPT FREQ

62, Energy =    -96.25953142 au

0 1
  N      7.07874482      2.56834282      1.67737083
  C      7.05220855      3.71356319      0.99861885
  N      6.01372722      3.70203192      0.17357063
  C      5.35589313      2.51833722      0.33414438
  C      6.02593123      1.80520536      1.28160379
  C      8.02804111      2.20031131      2.69862217
  C      7.79907392      3.02762699      3.95878508
  C      5.65370307      4.77877599     -0.70337776
  H      7.74503195      4.54437690      1.07177576
  H      4.46870954      2.28435567     -0.21626922
  H      5.90042004      0.81038338      1.67955646
  H      7.88435106      1.12842556      2.89255533
  H      9.03731581      2.37378405      2.31664933
  H      8.51148034      2.73243984      4.72365737
  H      6.79480571      2.85965912      4.34066131
  H      7.92777405      4.08833819      3.74860052
  H      4.75202240      5.28149498     -0.32209909
  H      5.45832558      4.39783105     -1.70477523
  H      6.47612089      5.49254539     -0.72277939
  N      5.01430520      7.25789409      3.41226696
  C      5.45445769      7.14469600      2.16269270
  N      5.44452104      8.33851817      1.58638622
  C      4.93615982      9.23490445      2.48010955
  C      4.66834371      8.56122362      3.62806718
  C      4.86658306      6.18594184      4.36347914
  C      5.70443022      6.44951085      5.60885592
  C      5.79056019      8.56502425      0.21523330
  H      5.86976868      6.26787616      1.71163864
  H      4.80327049     10.26968719      2.23963167
  H      4.29364222      8.90909182      4.57157272
  H      3.80953293      6.10431738      4.63320687
  H      5.16998484      5.26167000      3.86745533
  H      5.61347012      5.61629049      6.30028879
  H      5.36096108      7.35348013      6.10502105
  H      6.75061759      6.57082488      5.33887148
  H      6.73520833      8.05438722      0.01159074
  H      5.88682168      9.63202682      0.02830352
  H      5.00954324      8.13718739     -0.41632161
  N      6.55266254      9.30818050      9.81826526
  C      5.59516568     10.22818134      9.77614752
  N      5.52523508     10.83203956     10.95871462
  C      6.46433242     10.29145086     11.78156156
  C      7.11276873      9.33358077     11.06395568
  C      6.94041554      8.47630998      8.70400159
  C      8.28113357      8.92148428      8.13043604
  C      4.62450143     11.88001886     11.35233555
  H      4.97638609     10.38063911      8.89909902
  H      6.57291633     10.66776320     12.79138439
  H      7.90934715      8.67645238     11.34502786
  H      6.99325557      7.43756247      9.04014955
  H      6.15532666      8.58178646      7.94521890
  H      8.55337604      8.27060586      7.30457527
  H      9.06671765      8.88284200      8.88435917
  H      8.20460363      9.93803317      7.75357293
  H      4.71302130     12.72807965     10.67400548
  H      4.89600967     12.18276361     12.37218813
  H      3.59579744     11.51963624     11.33545181
 Cl      6.02116812     12.15790511     14.33869647
 Cl      8.43522267      6.56533197      0.69987074
 Cl      4.33772690      9.57626056      6.95596345
 Cl      7.01428818     -0.96958272      2.61999449
 Cl      3.22640063      6.29496666      0.90679309

