62
Energy =    -96.27060895 au
  N      5.27244135      4.10079260      8.02366436
  C      4.34793004      3.95369946      7.08290577
  N      4.73259363      4.59926364      5.98819404
  C      5.94087303      5.17034997      6.23525885
  C      6.27632912      4.86419236      7.51810436
  C      5.24863077      3.49467105      9.33033714
  C      6.32546211      2.42169382      9.43902792
  C      4.07466788      4.58371297      4.71532946
  H      3.42489665      3.40889366      7.21844960
  H      6.48220436      5.70386542      5.48319825
  H      7.12569160      5.14734267      8.10389465
  H      5.41131431      4.28781765     10.06826056
  H      4.26269110      3.05047663      9.46958786
  H      6.26213030      1.94214099     10.41155209
  H      7.31511434      2.85613506      9.32907938
  H      6.18906210      1.66903314      8.66506873
  H      3.16198222      3.99854693      4.78923075
  H      4.76304370      4.11706300      4.00226944
  H      3.83691782      5.59650453      4.38952769
  N      4.62690989     -0.24885005      4.28239811
  C      3.57241494     -0.93929738      4.69889261
  N      3.14761907     -0.41428973      5.84411574
  C      3.95596485      0.63774771      6.16164607
  C      4.88588599      0.74834382      5.17619669
  C      5.34387274     -0.51138186      3.05841634
  C      5.28069609      0.69448406      2.12976323
  C      2.02709915     -0.84263594      6.63167822
  H      3.18854031     -1.81590228      4.17575608
  H      3.77053360      1.21957459      7.04170247
  H      5.67296729      1.47047475      5.02173713
  H      6.38741940     -0.72646623      3.30605615
  H      4.88780217     -1.39774415      2.60774764
  H      5.79018845      0.46408740      1.19848827
  H      5.76769070      1.55133656      2.59174285
  H      4.24668988      0.94804921      1.90794665
  H      1.22933213     -1.19349492      5.97990168
  H      1.68320138      0.00503507      7.22748985
  H      2.31816578     -1.65421034      7.30146711
  N      3.05464976      7.77039711      7.20447605
  C      3.26976833      7.17420166      8.37377335
  N      2.41900765      6.16379365      8.50330602
  C      1.64189978      6.11069374      7.38405760
  C      2.04408453      7.12129497      6.56491799
  C      3.75655991      8.91750532      6.68258620
  C      5.14083001      8.52749110      6.18016327
  C      2.30830159      5.32692839      9.66343963
  H      4.04742829      7.38746665      9.09650782
  H      0.89240438      5.35738485      7.25644875
  H      1.67531615      7.49616422      5.62270378
  H      3.14131507      9.31754305      5.86361080
  H      3.84502986      9.65950142      7.47975913
  H      5.66795841      9.41691445      5.84734610
  H      5.05506906      7.84699161      5.33771311
  H      5.71696935      8.04860428      6.97002167
  H      2.16898123      4.28756297      9.35878661
  H      1.44852741      5.63261797     10.26228245
  H      3.21646870      5.43937802     10.25404416
 Cl      5.49791958      6.61886493     10.54254850
 Cl      1.47605264      9.39827478      4.35467052
 Cl      6.96314034      3.11882671      4.22229287
 Cl      3.22133582     -3.44469064      2.85831620
 Cl      1.87433460      2.22775467      8.30562673
