62
Energy =    -96.25621758 au
  N      3.70307540      6.16238231      7.93286786
  C      3.69979930      5.98920639      6.60998769
  N      3.90696064      7.16394754      6.02001107
  C      4.07874796      8.10334151      6.98806882
  C      3.93932549      7.48069911      8.18832936
  C      3.58630517      5.10377275      8.90366054
  C      4.87777167      4.29316139      8.96590001
  C      4.12574694      7.39965309      4.62396467
  H      3.53453333      5.03120023      6.14056336
  H      4.30658970      9.12241583      6.75856255
  H      4.01699114      7.86804743      9.18275888
  H      3.35536798      5.55480097      9.87152848
  H      2.76924680      4.44511728      8.59957349
  H      4.87850651      3.65874578      9.84776141
  H      5.74249476      4.95155487      8.99454334
  H      4.93664333      3.66246405      8.08351226
  H      5.19193516      7.61316593      4.49287372
  H      3.54584417      8.25943566      4.28966817
  H      3.84539308      6.52153349      4.04940203
  N      3.22662625     -0.18810547      5.40919611
  C      1.97092401      0.21842658      5.58802987
  N      1.47986026      0.63640935      4.42190589
  C      2.41652466      0.39996526      3.45738626
  C      3.50961107     -0.11244815      4.07276799
  C      4.08753345     -0.72381823      6.42957354
  C      3.99956775     -2.24605472      6.45933469
  C      0.13292746      1.08331460      4.23163431
  H      1.50985856      0.37812641      6.53966442
  H      2.23383049      0.61660741      2.42509779
  H      4.45748822     -0.41176855      3.67586039
  H      5.10932602     -0.38637465      6.23053314
  H      3.76260361     -0.30746227      7.38505652
  H      4.50156196     -2.63814350      7.33947809
  H      4.45493562     -2.67467802      5.56949858
  H      2.95046067     -2.53438834      6.48248466
  H     -0.03513258      2.00836020      4.78567599
  H     -0.53839415      0.30672263      4.60694164
  H     -0.04941166      1.25271990      3.17301965
  N      4.76818324      4.17053917      2.69964523
  C      5.14915862      3.89118126      3.94456724
  N      6.25058631      4.57919637      4.22335777
  C      6.58412224      5.31090366      3.12157929
  C      5.65115801      5.05345965      2.16316571
  C      3.60340639      3.65020414      2.02344685
  C      2.32856636      4.01151398      2.77571237
  C      6.94632679      4.58294721      5.47611132
  H      4.61412688      3.26455336      4.64158320
  H      7.43295540      5.96191089      3.11661149
  H      5.50715359      5.40241553      1.14854162
  H      3.60656064      4.09207667      1.01540265
  H      3.70191190      2.56377987      1.95109566
  H      1.47451951      3.57665907      2.26515234
  H      2.19635183      5.09083681      2.78964459
  H      2.35489897      3.64030395      3.79837883
  H      6.42559389      3.93303382      6.17409082
  H      6.97384935      5.60963110      5.87603866
  H      7.97057703      4.23577784      5.34131540
 Cl      0.61755082     -1.91234005      5.73904253
 Cl      4.26044316      5.36448035     -0.68360898
 Cl      6.86645232      7.70924764      6.37406136
 Cl     42.41957831     13.32069790      5.36787513
 Cl      3.11655752      2.83105579      6.22793790
