62
Energy =    -96.28574466 au
  N      3.38197043      3.81918896      7.50251064
  C      2.76966519      3.21293355      8.51344944
  N      1.51115779      3.61598678      8.57347034
  C      1.29988978      4.49860054      7.56213954
  C      2.47295341      4.63430529      6.88975964
  C      4.81539727      3.81171098      7.31822646
  C      5.26311545      4.02108818      5.88011625
  C      0.49747173      3.11511904      9.45264599
  H      3.22588654      2.51240644      9.18161973
  H      0.34873582      4.98099138      7.44426659
  H      2.69492323      5.20940490      6.01175680
  H      5.21388138      4.59894994      7.97048659
  H      5.18673466      2.85411465      7.69194764
  H      6.33017951      4.23006028      5.86682373
  H      4.74592410      4.85228808      5.41121489
  H      5.08158703      3.12838528      5.28937838
  H      0.30155308      2.07282255      9.18920957
  H     -0.40503467      3.70702535      9.31638479
  H      0.83427614      3.17288517     10.48721088
  N      1.46048553      7.38995771      8.62692759
  C      2.75847610      7.32821644      8.35667649
  N      2.96494204      7.80200106      7.13249284
  C      1.76396847      8.18098743      6.61170107
  C      0.81779878      7.92571017      7.55538174
  C      0.83961664      6.94142969      9.84649208
  C      0.61487721      8.10937459     10.80056676
  C      4.21601959      7.84025451      6.43252208
  H      3.47994344      6.84523525      9.01135359
  H      1.67933625      8.56304155      5.61607860
  H     -0.24968571      8.01143623      7.53225320
  H     -0.11561956      6.48251203      9.57469711
  H      1.50525881      6.20387558     10.29926724
  H      0.13781126      7.74974488     11.70738939
  H     -0.02954351      8.85748695     10.34319978
  H      1.56393833      8.57077760     11.06671131
  H      4.54836659      8.87039789      6.29486466
  H      4.07304243      7.37843446      5.44944366
  H      4.96099773      7.28763047      6.99892421
  N      0.60000594      2.53672832      4.57277135
  C      0.66574840      3.82045493      4.22383526
  N     -0.27871187      4.49318595      4.86773522
  C     -0.96549992      3.62257745      5.65515670
  C     -0.41022592      2.39291322      5.47140272
  C      1.44708403      1.47475829      4.08599644
  C      2.91484122      1.79660510      4.31878343
  C     -0.50709207      5.90552460      4.77468879
  H      1.39997461      4.28377828      3.59034652
  H     -1.74407942      3.95987371      6.31071749
  H     -0.60538610      1.45609381      5.95004607
  H      1.19436612      0.57961595      4.65632675
  H      1.23789893      1.31428548      3.02168820
  H      3.53532890      1.03107020      3.86068986
  H      3.08613035      1.79187955      5.39241832
  H      3.17861488      2.76586995      3.90593532
  H      0.44142172      6.39583489      4.55806927
  H     -0.91394761      6.25417307      5.72548369
  H     -1.22054133      6.12373509      3.97814911
 Cl      2.82933546      6.24537198      3.87627457
 Cl      1.62095054      0.80095578      7.29118600
 Cl     28.25056809     -0.41928782    -27.89866787
 Cl      4.05999678      5.25030260     10.26147815
 Cl     -1.79660979      5.98555762      7.90219126
