62
Energy =    -96.26299301 au
  N      4.97290821      4.54898505      8.59071885
  C      6.08302195      3.91382934      8.94196661
  N      7.10624079      4.40008103      8.25187488
  C      6.63765806      5.38351664      7.43580018
  C      5.29921188      5.47156818      7.64167334
  C      3.64325477      4.23451633      9.04562973
  C      3.62336194      3.97507703     10.54788429
  C      8.46851357      4.01758678      8.46625633
  H      6.15038207      3.12524915      9.65970921
  H      7.27787856      5.93383755      6.77740731
  H      4.56577143      6.11004256      7.19417670
  H      3.00107716      5.08147740      8.78994240
  H      3.30273040      3.35070702      8.49241651
  H      2.61746092      4.10126828     10.93979574
  H      4.29746619      4.66791512     11.04746747
  H      3.95667179      2.96488596     10.76693781
  H      8.72422779      4.26178609      9.50131607
  H      9.11518286      4.56202207      7.78164860
  H      8.57629502      2.94464561      8.30433724
  N      4.93654348      2.62768274      3.44807045
  C      4.93479460      2.58861060      2.11854187
  N      4.48893323      1.40102154      1.72685915
  C      4.20240798      0.65944025      2.83373128
  C      4.48168645      1.43449304      3.91786016
  C      5.30182666      3.76922899      4.25044600
  C      4.31973189      4.91103763      4.02058276
  C      4.35155476      0.96129194      0.36824377
  H      5.15532281      3.42808198      1.46535547
  H      3.77074997     -0.31765068      2.75129817
  H      4.43839132      1.23722643      4.97258696
  H      5.31602701      3.44190301      5.29481055
  H      6.30684225      4.08876496      3.96185986
  H      4.60917633      5.76802603      4.62122745
  H      3.31377566      4.60748914      4.30105784
  H      4.32415109      5.20126196      2.97108830
  H      3.48444664      0.29435310      0.30299509
  H      5.24283009      0.41296839      0.05677125
  H      4.21607484      1.82701866     -0.27561693
  N     -0.06563250      2.61189061      1.17289855
  C     -0.41059285      3.89482503      1.12180610
  N      0.69208013      4.62434999      1.00524879
  C      1.77410557      3.79351789      0.98820172
  C      1.29227268      2.52501277      1.09337102
  C     -0.95860870      1.48130197      1.25333339
  C     -1.93685182      1.48126793      0.08500274
  C      0.70829975      6.05657001      0.91851558
  H     -1.40754399      4.33155326      1.11049664
  H      2.77630663      4.17299148      0.87267815
  H      1.76482422      1.56123094      1.11451566
  H     -0.33529921      0.58117512      1.24123707
  H     -1.50638898      1.52808658      2.19965086
  H     -2.60543054      0.62885147      0.16860852
  H     -1.39511234      1.40526857     -0.85454902
  H     -2.52686098      2.39476994      0.07786389
  H     -0.31136266      6.39613630      0.72794511
  H      1.37662460      6.36786342      0.11708141
  H      1.06920100      6.48566704      1.85462035
 Cl     -2.83528283      5.82384787      0.67017333
 Cl      6.89509981      5.33941770     11.14279920
 Cl      5.48146887      1.92260767      7.11670358
 Cl      1.66496801     -0.82170844      1.06600557
 Cl      4.77542008      5.22719878      0.39320375
