62
Energy =    -96.26285885 au
  N      3.67448371      1.07593435      2.81746775
  C      2.87638016      2.06094204      3.22010511
  N      1.63430897      1.79855246      2.81885620
  C      1.63057065      0.62203212      2.13947452
  C      2.91316874      0.16773138      2.13974516
  C      5.10099156      0.98801400      3.02387379
  C      5.50029440      1.42115579      4.42622212
  C      0.46531751      2.60183037      3.03636641
  H      3.18699041      2.93849640      3.77268017
  H      0.70165714      0.21483114      1.76800063
  H      3.33441075     -0.71582955      1.70963283
  H      5.39140084     -0.05064960      2.84697591
  H      5.61438552      1.60926138      2.26822482
  H      6.58047908      1.36097444      4.52234693
  H      5.04347536      0.77687258      5.17659480
  H      5.19678052      2.44693391      4.62185686
  H      0.43192366      2.94464314      4.06861583
  H     -0.40904504      1.98417444      2.80140320
  H      0.48122185      3.47055649      2.37696642
  N      5.67367305      5.83332644      1.86743061
  C      6.12451252      5.03440929      2.82662630
  N      6.83138456      5.75497484      3.68924637
  C      6.82993346      7.05210422      3.28077560
  C      6.10319576      7.10067108      2.13451748
  C      4.87625471      5.41837665      0.74064626
  C      3.57730750      4.75792662      1.19701083
  C      7.41398640      5.30149899      4.91824973
  H      5.98395554      3.97201375      2.83898701
  H      7.36886163      7.80431469      3.83840155
  H      5.85708806      7.92975281      1.50352083
  H      4.68321839      6.30540493      0.13530296
  H      5.46146415      4.69178390      0.16814552
  H      2.80624620      4.86897908      0.43805451
  H      3.23398542      5.19767757      2.13233435
  H      3.75269368      3.69860395      1.36314359
  H      6.61508983      4.96070366      5.57881511
  H      7.94300258      6.13855400      5.37222317
  H      8.09950859      4.47612112      4.73193859
  N      2.67017438      7.22787755      5.49443953
  C      3.50502642      7.25103935      6.52633597
  N      4.59755707      7.93212558      6.19758191
  C      4.42532278      8.41870535      4.93812838
  C      3.22149763      7.97342509      4.49517378
  C      1.38478664      6.58098661      5.45766418
  C      0.26856334      7.59794218      5.65758428
  C      5.70291109      8.21492401      7.06753044
  H      3.36846210      6.70704003      7.43706375
  H      5.17622543      9.01810022      4.46604227
  H      2.72934070      8.10798844      3.55363445
  H      1.28770535      6.05204102      4.50413278
  H      1.37221605      5.84113768      6.26051513
  H     -0.67819434      7.08952708      5.82753895
  H      0.16983640      8.24564154      4.78724569
  H      0.51558113      8.21293743      6.52288517
  H      5.41438606      9.00825208      7.75986660
  H      6.57292468      8.52348253      6.48450521
  H      5.95537149      7.32351260      7.64049364
 Cl      6.67626308      2.68622649      0.67836024
 Cl      8.60136656      8.75641524      5.37713870
 Cl      4.01247636      4.65670138      4.80672198
 Cl     -1.56231614      0.21386428      1.88396922
 Cl      2.30098636      9.08382839      8.01733472
