62
Energy =    -96.26202427 au
  N      5.41453652      6.37912724      3.80484860
  C      6.38667250      7.27942526      3.89421508
  N      7.45440281      6.82096059      3.24786914
  C      7.15065042      5.59738787      2.72921086
  C      5.86575076      5.31589425      3.07966210
  C      4.10008329      6.52770024      4.38033906
  C      3.02504193      6.45228098      3.30432860
  C      8.72189879      7.48043324      3.10544463
  H      6.28840773      8.21767643      4.42199223
  H      7.88235005      5.05061145      2.16382042
  H      5.23057378      4.46934952      2.86567503
  H      3.94543401      5.72042951      5.10183140
  H      4.08902057      7.49031265      4.89961799
  H      2.04750864      6.61646537      3.74923389
  H      3.03227023      5.46623927      2.84298933
  H      3.19399241      7.20866185      2.54142566
  H      9.39569653      6.80772875      2.56323432
  H      9.13879365      7.71081012      4.08560975
  H      8.60423632      8.40936102      2.54695529
  N      8.91804567      2.14555137      3.20458254
  C      8.10901589      1.77631693      4.19248790
  N      6.85808486      1.75867760      3.74542388
  C      6.86994961      2.09611455      2.42556145
  C      8.16314168      2.33738483      2.08573194
  C     10.35439979      2.23106717      3.26033799
  C     10.96732275      0.91324190      2.79782251
  C      5.69700398      1.36761765      4.48900078
  H      8.41349266      1.55334919      5.19315981
  H      5.95887785      2.16815020      1.86597354
  H      8.60489391      2.66900066      1.16895649
  H     10.65963978      3.07118432      2.62758153
  H     10.64145200      2.43286764      4.29462412
  H     12.04035439      0.91525429      2.97066613
  H     10.78129655      0.76004670      1.73755898
  H     10.51133454      0.09538383      3.35405552
  H      5.66940805      0.27925538      4.56463192
  H      4.81074463      1.73883017      3.96910752
  H      5.74083100      1.78681549      5.49347271
  N      3.39525203      9.39181725      8.22722516
  C      2.85913877     10.07583804      7.22372764
  N      2.14756055      9.25389779      6.46321008
  C      2.20787645      8.00843758      7.01188810
  C      2.98792852      8.09384699      8.11826715
  C      4.19931036      9.94965739      9.28038915
  C      3.32223214     10.31832593     10.47301103
  C      1.41160138      9.66364808      5.30632318
  H      3.02893815     11.11154514      7.01993615
  H      1.70698325      7.16773931      6.57783078
  H      3.29385953      7.34077150      8.81460159
  H      4.96574724      9.21880015      9.55484282
  H      4.69223537     10.83751325      8.87987860
  H      3.87888519     10.92294334     11.18394822
  H      2.96015602      9.42347132     10.97439362
  H      2.46149476     10.88013647     10.11304830
  H      0.71353595     10.44879191      5.60551810
  H      0.86617549      8.81541726      4.89914701
  H      2.10241949     10.05239029      4.55644798
 Cl      3.51241420      3.05381810      2.52232595
 Cl      0.71557964     11.20910640      8.35276264
 Cl      8.53822022     -0.90738179      4.62449842
 Cl     10.23668521      5.06180037      1.39778706
 Cl      5.16356394      9.67099651      5.68094239
