62
Energy =    -96.26452436 au
  N      7.52291598      9.03217636      9.74341975
  C      7.62687495      7.86527061      9.11404846
  N      8.70762320      7.23257646      9.55851452
  C      9.30627211      8.01503687     10.50025591
  C      8.55771705      9.14547654     10.62223869
  C      6.45093696      9.97667889      9.54692090
  C      5.47047129      9.92601935     10.71319915
  C      9.16509129      5.92592580      9.18412892
  H      6.95134731      7.56127177      8.32230801
  H     10.17703904      7.67242387     11.02158992
  H      8.64498388      9.96960626     11.30185694
  H      6.88270920     10.97734219      9.46563100
  H      5.95818558      9.70965276      8.60700887
  H      4.74589593     10.72981656     10.61938002
  H      5.99617037     10.04366135     11.66031621
  H      4.94095037      8.97598465     10.71525890
  H      9.44926823      5.39396103     10.09926603
  H     10.03930405      5.99947093      8.53545302
  H      8.37216587      5.39733746      8.66076251
  N      3.48025391     10.67813404      6.62662635
  C      4.01156512     10.26452205      5.47747500
  N      5.19716595     10.84751284      5.31204307
  C      5.39066569     11.71679659      6.34482040
  C      4.32118412     11.60897479      7.17068445
  C      2.23939964     10.21135779      7.18348081
  C      2.49567402      9.12932729      8.22950240
  C      6.03171666     10.64696813      4.16732083
  H      3.64469574      9.45142547      4.88775156
  H      6.26592046     12.32941917      6.41514510
  H      4.09457033     12.11136454      8.08803338
  H      1.70933621     11.06310566      7.61971889
  H      1.64324945      9.81944370      6.35739238
  H      1.57282943      8.60997444      8.47278205
  H      2.90631943      9.56312245      9.13759646
  H      3.21715907      8.41462309      7.83988632
  H      6.36721344      9.60845343      4.14225212
  H      6.89314232     11.30947429      4.22019792
  H      5.44560078     10.86519013      3.27178937
  N      9.15615904      7.13183930     14.98166577
  C      8.58971319      7.27464579     13.78807673
  N      7.42566874      6.63839408     13.77873164
  C      7.25149030      6.04908728     14.99460466
  C      8.33294626      6.36160585     15.75299237
  C     10.38814271      7.75665986     15.38466526
  C     10.11551754      9.16072899     15.91610667
  C      6.55238845      6.59204159     12.64587803
  H      8.97133182      7.86259838     12.98282295
  H      6.38765429      5.46019408     15.22600327
  H      8.58021321      6.09374152     16.75963247
  H     10.86481177      7.13008411     16.14393043
  H     11.03539598      7.79891984     14.50614943
  H     11.04645023      9.70387759     16.05092701
  H      9.59130208      9.11520135     16.86820115
  H      9.48739671      9.69666688     15.20685574
  H      6.33060012      7.61705517     12.34479895
  H      5.63368570      6.07211977     12.90736569
  H      7.05663357      6.06977350     11.83107945
 Cl      7.47509892      9.83400002     13.62517169
 Cl      2.71401983     11.64551548      3.83156031
 Cl      1.77078491    -30.95361869     -1.47709325
 Cl      5.58637270      8.10120420      6.74416018
 Cl      9.93456855      5.43803841     12.39126203
