#B3LYP/6-31+G(d) OPT FREQ

62, Energy =    -96.25880784 au

0 1
  N      6.17814352      3.50284964      9.63377974
  C      5.31958464      4.52447441      9.64158483
  N      4.98134088      4.80732795      8.38410095
  C      5.63140684      3.94779147      7.55316279
  C      6.38016546      3.12512588      8.33537129
  C      6.72318851      2.88488812     10.81651571
  C      6.06014078      1.53785043     11.08438724
  C      4.09687719      5.84646361      7.94339171
  H      5.01077510      5.01552320     10.55914174
  H      5.44054468      3.97183559      6.49400634
  H      7.03590643      2.32178667      8.07019977
  H      7.80161694      2.76079192     10.68645839
  H      6.52433940      3.56683127     11.65010283
  H      6.51108994      1.07907628     11.95923138
  H      6.17449106      0.86442482     10.23647072
  H      5.00169583      1.68154867     11.28475701
  H      3.77269600      5.59255499      6.92640516
  H      4.61566253      6.80573996      7.92860083
  H      3.24279127      5.90870546      8.61175464
  N      1.02513101      3.32834618      6.30471702
  C      1.94033735      2.36423923      6.30849491
  N      2.51672665      2.31618150      7.50918857
  C      1.88889864      3.21976338      8.31789949
  C      0.95923854      3.85480620      7.56214911
  C      0.20340081      3.69321304      5.18220540
  C     -1.09857145      2.89955443      5.19357986
  C      3.43240414      1.29037915      7.90792558
  H      2.27988866      1.83720252      5.44268660
  H      2.15292735      3.34297662      9.34883690
  H      0.26652084      4.63096411      7.81163764
  H      0.01660185      4.76994844      5.22819615
  H      0.77641940      3.48054404      4.27797179
  H     -1.62888991      3.02536961      4.25391657
  H     -1.73999063      3.22510802      6.00951051
  H     -0.86816474      1.84645065      5.34061056
  H      3.72351530      1.44049032      8.94491300
  H      4.31192719      1.30627666      7.26402272
  H      2.91989598      0.32944528      7.79597634
  N      1.26526053      7.37443366      9.55737169
  C      2.20416882      8.25428595      9.95215625
  N      2.94819226      7.67664974     10.90571625
  C      2.37302398      6.47716677     11.23619773
  C      1.32741202      6.28668614     10.39943395
  C      0.23107190      7.67607346      8.60384973
  C      0.76675341      7.70610965      7.17494372
  C      4.03331831      8.28686182     11.61596844
  H      2.52783397      9.09113653      9.36843110
  H      2.79650674      5.85864197     12.00269421
  H      0.62878722      5.47918704     10.33147697
  H     -0.55209823      6.92144945      8.70521469
  H     -0.18382968      8.65263402      8.87731653
  H     -0.05073732      7.88896947      6.48267664
  H      1.24617302      6.76554810      6.91260625
  H      1.49554311      8.50315039      7.05904697
  H      4.58663020      7.50280387     12.13530051
  H      3.64460700      9.00912288     12.33646261
  H      4.69048982      8.80538751     10.91825538
 Cl      0.86049489      9.88802997     11.06984303
 Cl      5.18898985      5.23555712     12.68783198
 Cl      0.59682620      0.20327046      6.63024230
 Cl      3.63824868      4.39536929      5.06807451
 Cl     21.00322271     18.23843258    -28.19222507

