62
Energy =    -96.27842429 au
  N      1.60839709      5.48276297      6.74769008
  C      2.18894512      6.56733152      6.24133439
  N      1.88018255      6.66366655      4.94829952
  C      1.07131191      5.61122762      4.62951782
  C      0.90185204      4.86922302      5.75710454
  C      1.66591059      5.05892085      8.12588813
  C      0.26865641      4.86712801      8.70265276
  C      2.30737679      7.72332518      4.07911130
  H      2.88790409      7.22981124      6.72734581
  H      0.68060812      5.46458299      3.64319390
  H      0.31250479      3.97502209      5.92092515
  H      2.21573031      4.11411905      8.20829495
  H      2.21728610      5.82022594      8.68099611
  H      0.36107897      4.52749287      9.72952272
  H     -0.27825444      4.11159796      8.14250252
  H     -0.29428139      5.79935626      8.68503128
  H      1.52349902      8.47659019      3.98196705
  H      2.54465087      7.32401984      3.09476265
  H      3.19643974      8.18159726      4.52227532
  N      6.19472533      4.42865509      5.70980977
  C      6.40451138      3.15534450      6.03854284
  N      6.01187896      2.96290357      7.28918371
  C      5.54165591      4.14186034      7.78073192
  C      5.65465931      5.06791462      6.78846590
  C      6.46602749      5.01734337      4.42100543
  C      5.20580959      5.64122013      3.83596163
  C      6.06575338      1.70953577      7.98240849
  H      6.71452284      2.34888318      5.38724350
  H      5.12031393      4.20928406      8.76304058
  H      5.40147286      6.11456575      6.76035431
  H      7.23022212      5.79189714      4.53848257
  H      6.85165712      4.22447967      3.77570546
  H      5.41468962      6.01831034      2.83926867
  H      4.89229956      6.47226946      4.46420418
  H      4.41033599      4.90194919      3.77757187
  H      5.15341540      1.60521817      8.57472151
  H      6.92954136      1.68016734      8.64830075
  H      6.14284772      0.91448067      7.24188866
  N      1.74343138      0.06851188      8.14623465
  C      1.80323379      1.16142749      7.39338406
  N      2.80609875      1.03628260      6.53457492
  C      3.43715948     -0.14780096      6.77106547
  C      2.76977892     -0.75595266      7.78545625
  C      0.80457938     -0.12122700      9.22172883
  C     -0.60625945     -0.34225945      8.68859369
  C      3.19568524      1.99612762      5.54121771
  H      1.05965342      1.94268878      7.39177261
  H      4.30688220     -0.43384500      6.20835622
  H      2.94663090     -1.69357761      8.27411229
  H      1.13871990     -0.97492622      9.81747823
  H      0.83904805      0.77805230      9.84431294
  H     -1.31102960     -0.40243010      9.51453101
  H     -0.65942375     -1.26427207      8.11147241
  H     -0.89297523      0.48677061      8.04448071
  H      3.42117865      2.94626505      6.02416319
  H      2.38166340      2.14487074      4.83222189
  H      4.08314675      1.61641463      5.03052644
 Cl      3.19693337      2.42569992      9.43926736
 Cl      4.84116262      8.26631909      6.14184018
 Cl      6.14324308      0.33353344      4.75131587
 Cl    -10.24668321     27.89009903    -22.30629785
 Cl     -0.98928093      2.34207667      6.41344900
