#B3LYP/6-31+G(d) OPT FREQ

62, Energy =    -95.99928533 au

0 1
  N      4.33843499     -9.01659744      6.31881150
  C      4.56154293     -8.47876233      5.11378429
  N      4.86171050     -9.46733125      4.26552949
  C      4.80198011    -10.65889262      4.93329023
  C      4.46980981    -10.37516758      6.23114417
  C      3.92325119     -8.27589520      7.51564439
  C      2.55401859     -8.72248473      7.99285918
  C      5.02194625     -9.32351797      2.82309253
  H      4.44797194     -7.44299636      4.84939474
  H      4.97004208    -11.59903137      4.44087824
  H      4.29317598    -11.02731903      7.06627457
  H      4.68635700     -8.43220360      8.27757220
  H      3.92238306     -7.22364775      7.24087202
  H      2.28267002     -8.14412170      8.87493877
  H      2.54835843     -9.77847841      8.25465754
  H      1.80813381     -8.56435385      7.22018814
  H      4.12850855     -9.70677338      2.33765658
  H      5.90304609     -9.87751663      2.51088585
  H      5.12693826     -8.27077670      2.58660425
  N     11.33516747      4.40724962     14.51115283
  C     10.32491787      5.03505873     13.89764992
  N      9.77223712      4.18365366     13.02784611
  C     10.42231889      2.98348755     13.10712799
  C     11.40967351      3.12334209     14.04565525
  C     12.16376670      4.97554312     15.58068178
  C     12.00459190      4.19768191     16.87357364
  C      8.54940925      4.42457965     12.27046324
  H      9.96704020      6.02531302     14.11428641
  H     10.12394077      2.13223654     12.52324659
  H     12.11917610      2.41181854     14.42550276
  H     13.19601773      4.97048587     15.23178491
  H     11.84612880      6.00886812     15.69930270
  H     12.62860581      4.65620919     17.63944414
  H     12.30799848      3.15974972     16.75384773
  H     10.97038081      4.20904786     17.20319201
  H      7.74207821      3.86292513     12.73255031
  H      8.70523760      4.10861552     11.24254852
  H      8.31339042      5.48169801     12.31529738
  N     -2.05571476      7.85035897     11.44572470
  C     -1.57228114      7.52751267     10.24023868
  N     -0.24029900      7.45943119     10.33020404
  C      0.13125961      7.71556473     11.62079710
  C     -1.01583729      7.96141146     12.32718932
  C     -3.47819129      7.96817374     11.78646882
  C     -3.88205076      6.94241888     12.82891718
  C      0.65448255      6.98720980      9.27979694
  H     -2.15135341      7.28971161      9.36631802
  H      1.15712805      7.67840963     11.93826947
  H     -1.16319911      8.17131819     13.37034198
  H     -3.64702633      8.98623192     12.13625312
  H     -4.02892215      7.82754585     10.85929860
  H     -4.94284593      7.05988571     13.04597336
  H     -3.32210184      7.07169966     13.75273359
  H     -3.70238484      5.93532589     12.46580026
  H      0.97836140      5.98068366      9.53033896
  H      1.50226124      7.66339122      9.21069956
  H      0.10921970      6.95863014      8.34326834
 Cl     10.07755923    -12.79365385     -6.12224912
 Cl     -4.09058870      6.80343002      5.67907884
 Cl      2.51351241      5.00246079     13.01812620
 Cl      1.31966229      6.40794559     16.26757905
 Cl     15.99619549     22.83512041     40.12039381

