62
Energy =    -96.27040226 au
  N      2.34498709      1.97824626      7.08865254
  C      3.33767378      2.64587368      7.66852294
  N      2.84970989      3.73649797      8.24314193
  C      1.49841943      3.74114653      8.06266933
  C      1.17972509      2.63646545      7.33801558
  C      2.43870891      0.70333436      6.42429516
  C      2.42093117     -0.41809235      7.45940731
  C      3.63918375      4.65486861      9.00615060
  H      4.37642348      2.39345153      7.62713997
  H      0.87468027      4.51229035      8.46585674
  H      0.25012989      2.27240082      6.94085849
  H      1.58027172      0.62206275      5.75057507
  H      3.36773420      0.68294739      5.84943785
  H      2.70424201     -1.36142915      7.00032770
  H      1.42291040     -0.51695460      7.87852777
  H      3.11085870     -0.18465657      8.26846172
  H      4.13745112      4.08670820      9.79574891
  H      3.00205475      5.42405074      9.43658717
  H      4.38755933      5.10916802      8.35444346
  N      3.20325355      6.72681277      0.98397626
  C      4.40631747      6.16911988      0.92093164
  N      4.83969159      5.95644061      2.16025514
  C      3.88573306      6.39070741      3.03196910
  C      2.85141613      6.87182406      2.29341289
  C      2.40217602      7.08639467     -0.16031257
  C      1.07754059      6.33419023     -0.14181564
  C      6.08571581      5.36774145      2.56191784
  H      4.92316427      5.98671888     -0.01895610
  H      4.03420426      6.29061335      4.08951821
  H      1.89639535      7.26852980      2.59366941
  H      2.21221603      8.16322576     -0.12681479
  H      2.99495482      6.85213119     -1.05014983
  H      0.49587609      6.59503011     -1.02146809
  H      0.50617048      6.59777893      0.74562234
  H      1.25204323      5.26090216     -0.14485402
  H      6.00132364      5.08105941      3.61181260
  H      6.90052607      6.08460489      2.44968191
  H      6.30160575      4.49305879      1.95121140
  N     -0.26331787      4.25603843      4.17236314
  C     -0.05876739      5.36373132      4.87128811
  N      1.22348958      5.43382086      5.21196950
  C      1.85846156      4.33834440      4.70943349
  C      0.92325846      3.60063070      4.05400521
  C     -1.50406119      3.84375195      3.57103622
  C     -1.55480425      4.30765065      2.11989543
  C      1.84813280      6.51146784      5.92260736
  H     -0.80361640      6.09438466      5.10935015
  H      2.90849591      4.18655349      4.87260660
  H      0.98756117      2.64868602      3.57101426
  H     -1.56012027      2.75440368      3.66581098
  H     -2.32151767      4.29554977      4.13679353
  H     -2.52643881      4.08390863      1.68833055
  H     -0.78635783      3.81202799      1.53246470
  H     -1.38451332      5.38175427      2.08037317
  H      1.77911163      7.41958444      5.32182192
  H      2.89344470      6.25275507      6.09644985
  H      1.34492335      6.67984132      6.87488481
 Cl     -0.28106539      7.60780477      3.10726373
 Cl      5.21510013      6.28418942     -2.10700004
 Cl      3.90597042      1.51368178     10.10490104
 Cl     -0.74669709      1.03380794      5.07364064
 Cl      4.95419533      5.03099976      5.87699927
