62
Energy =    -96.24873446 au
  N      6.13561279      0.87967316      1.81121076
  C      5.96543938      1.39428839      0.59570941
  N      7.09614681      1.98634701      0.21369880
  C      8.01020130      1.84641306      1.21817873
  C      7.40282056      1.15924859      2.22096183
  C      5.13514540      0.22807533      2.61496676
  C      5.46277685     -1.24501754      2.82758753
  C      7.28203593      2.65961319     -1.03968156
  H      5.07388060      1.38650731     -0.02036435
  H      8.99669559      2.25700290      1.15816266
  H      7.76239221      0.88393453      3.18912673
  H      5.09725301      0.77079778      3.56593639
  H      4.17600077      0.33219723      2.10449573
  H      4.71226134     -1.69570989      3.47033448
  H      6.43462398     -1.36258205      3.29996532
  H      5.46957585     -1.77464907      1.87699354
  H      8.06746278      2.17383857     -1.62032365
  H      7.55441789      3.70174166     -0.87214268
  H      6.33779511      2.61234300     -1.58827809
  N      6.80816915      1.85968522      7.35356368
  C      6.97853845      1.80774110      8.67486626
  N      5.84478839      2.19606730      9.26960143
  C      4.90626426      2.40300278      8.29269532
  C      5.50872610      2.19539639      7.09741259
  C      7.76234529      1.48216566      6.34206953
  C      7.68779790     -0.02164444      6.09208978
  C      5.61949432      2.11476262     10.68226422
  H      7.91797987      1.68121525      9.16961340
  H      3.89900354      2.67923641      8.52570625
  H      5.16471422      2.31640604      6.08754089
  H      7.50707028      2.04609000      5.43862325
  H      8.76141778      1.75999122      6.68658932
  H      8.50942416     -0.34298705      5.45652392
  H      6.74280128     -0.27367776      5.61775932
  H      7.74346220     -0.54940446      7.04179747
  H      5.86139591      1.09330329     10.99311977
  H      4.57766578      2.33524881     10.90159052
  H      6.26449007      2.81437725     11.21642720
  N      2.41539608      4.31673064      1.12451881
  C      2.03910518      3.81165630     -0.04886386
  N      0.82712666      4.26856330     -0.34276452
  C      0.40918268      5.08533874      0.65987091
  C      1.40964959      5.11808492      1.58180721
  C      3.68830699      4.08497775      1.76311836
  C      4.82982271      4.66422813      0.93910382
  C      0.05049147      3.97011047     -1.51318236
  H      2.64571018      3.15378774     -0.66145343
  H     -0.56221707      5.56147527      0.59231295
  H      1.47977346      5.63889217      2.51399075
  H      3.67053192      4.53497336      2.75622264
  H      3.84327844      3.01122883      1.88486548
  H      5.75753716      4.48132816      1.47300146
  H      4.70441251      5.73683341      0.80665722
  H      4.86826051      4.18369854     -0.03465991
  H      0.61373779      4.21998229     -2.41096050
  H     -0.86939339      4.56629795     -1.45928128
  H     -0.19839580      2.90963018     -1.53939913
 Cl      6.90239519     -0.61166705      9.45396080
 Cl      5.95677857      3.08561107      3.93436149
 Cl     -2.39905937      5.94963961     -0.53478081
 Cl      4.06605275      2.01697059     -1.83732065
 Cl     32.97327151      9.48501681      4.39388508
