62
Energy =    -96.25828139 au
  N      8.65671330      4.40716658      4.37615292
  C      9.28955538      4.66165811      3.23571780
  N      8.95151106      3.74099287      2.34075875
  C      8.07133260      2.87662526      2.91421448
  C      7.88394993      3.29574444      4.19508217
  C      8.76266904      5.21431539      5.56842753
  C      7.49799462      6.03876319      5.77943852
  C      9.41193659      3.63703847      0.98460899
  H      9.99832094      5.47260312      3.13046258
  H      7.69540299      2.03857948      2.34142338
  H      7.27496149      2.89011820      4.97590437
  H      8.93623409      4.55298939      6.42185993
  H      9.63034025      5.86830770      5.42408083
  H      7.61532292      6.68878644      6.64122999
  H      6.63372796      5.39802185      5.94331148
  H      7.31209272      6.65839334      4.90699046
  H      9.02301016      2.69463947      0.57575423
  H     10.50040205      3.64190267      0.95621337
  H      9.03801508      4.47342929      0.39416454
  N      8.95462592      9.73780291      6.04758815
  C      9.83995371      8.79363232      6.35200971
  N      9.80136593      8.58226600      7.66545642
  C      8.87156791      9.41538227      8.21187464
  C      8.33832347     10.14266196      7.19222463
  C      8.69984427     10.29771631      4.74032926
  C      8.41208883      9.21594780      3.70874011
  C     10.58892009      7.63792453      8.40607755
  H     10.46549195      8.26126576      5.65051594
  H      8.71347298      9.42587921      9.27361051
  H      7.57134393     10.90110587      7.14615229
  H      7.84391545     10.97744522      4.85400596
  H      9.57765829     10.87547198      4.43467095
  H      8.29368693      9.67646288      2.73213712
  H      7.48600273      8.70335823      3.95622360
  H      9.22450527      8.49380203      3.65785024
  H     10.27593823      6.61983773      8.17266135
  H     10.43904255      7.83465725      9.47281725
  H     11.64208646      7.74320243      8.14999216
  N      6.24294477      8.05995649     10.57454352
  C      6.95029664      7.38124122     11.47456140
  N      7.58162976      6.38266250     10.86818834
  C      7.22676911      6.39119456      9.55330675
  C      6.39025805      7.44346939      9.36484123
  C      5.46025905      9.23519963     10.85282176
  C      6.29952589     10.49974753     10.68804738
  C      8.45133098      5.46530442     11.53754978
  H      7.09851670      7.66892005     12.49328305
  H      7.58589410      5.65148214      8.86771405
  H      5.89826462      7.80289554      8.48442658
  H      4.60425077      9.24998693     10.17398903
  H      5.09388134      9.14057431     11.87792365
  H      5.78333543     11.35057405     11.12395867
  H      6.48327878     10.70638784      9.63678264
  H      7.25579003     10.37215658     11.18964854
  H      9.30446340      6.02362193     11.92925886
  H      8.79273544      4.70433317     10.83916906
  H      7.90204718      5.00233786     12.35942751
 Cl      9.58637504      8.66901013     11.42293728
 Cl     11.35255199      6.87845193      4.16974544
 Cl      7.81792121      0.80780012      0.49021958
 Cl      6.17417800     12.15433526      5.88932673
 Cl      5.10529743      5.95360391     12.57459593
