#B3LYP/6-31+G(d) OPT FREQ

62, Energy =    -96.24804947 au

0 1
  N     10.36767398      7.54923357      9.04436166
  C      9.77360696      6.79992681      8.11843384
  N     10.70925647      6.15456741      7.42270219
  C     11.93125443      6.50849075      7.92639569
  C     11.71360644      7.37984707      8.94738963
  C      9.72274162      8.37634786     10.03538400
  C      9.05209938      7.51295779     11.09817432
  C     10.44983392      5.25982103      6.33041625
  H      8.71773783      6.69047719      7.92151258
  H     12.84507294      6.11908872      7.52849592
  H     12.36998682      7.94957600      9.59673400
  H     10.51238531      8.99805073     10.48301826
  H      8.98265875      9.00817259      9.53820800
  H      8.57556873      8.15181766     11.83622064
  H      9.79510074      6.90109508     11.60389676
  H      8.29903110      6.86379546     10.65392369
  H      9.36600129      5.16749544      6.21953593
  H     10.88329504      4.28017521      6.53263155
  H     10.87940598      5.65387986      5.40844891
  N      3.83933205      6.27592743      5.06701856
  C      4.84740433      7.06104158      5.43342107
  N      5.68975860      7.21110066      4.41246883
  C      5.20996762      6.47365569      3.37169293
  C      4.04947450      5.89017069      3.77639242
  C      2.69441211      5.93444454      5.87932439
  C      1.39635569      6.11136441      5.10405395
  C      6.93447549      7.92146747      4.46478769
  H      4.98631150      7.49116398      6.40443447
  H      5.71716209      6.41286823      2.43128040
  H      3.37547979      5.24017376      3.23013663
  H      2.76250136      4.89247611      6.22639950
  H      2.71303904      6.58059066      6.76075830
  H      0.56656907      5.84670672      5.75201178
  H      1.36772224      5.45401179      4.23764723
  H      1.27435519      7.14145294      4.77056708
  H      7.41251382      7.88849426      3.48935428
  H      7.56397283      7.42488115      5.21187305
  H      6.77123342      8.95754735      4.76113801
  N      2.48792511      1.24048516      4.54671573
  C      3.14898395      2.36619440      4.81117549
  N      4.39799289      2.06560721      5.17495155
  C      4.49288798      0.70503338      5.25309047
  C      3.30102467      0.18852148      4.85929272
  C      1.09691918      1.23857998      4.16341396
  C      0.65642970     -0.07735325      3.54627378
  C      5.36108266      3.01687955      5.64508025
  H      2.78586764      3.32903453      4.51161572
  H      5.38786599      0.21486171      5.57739140
  H      2.99134953     -0.83162809      4.77677065
  H      0.50534591      1.47052771      5.05587842
  H      0.97533060      2.06102269      3.45018564
  H     -0.37090466      0.01749704      3.20408017
  H      0.70015843     -0.89254309      4.26675342
  H      1.28110925     -0.32208761      2.69023088
  H      6.29580440      2.51576841      5.88476291
  H      4.97695209      3.49989963      6.54651118
  H      5.54666388      3.78001942      4.88980307
 Cl      2.00181759      3.91926186      2.25991159
 Cl      7.14013308      5.65030464      6.68157316
 Cl     12.63342780      9.65008399     10.92210251
 Cl     28.59453181     -0.98670794    -28.43315799
 Cl      2.26000172      2.86743277      7.12271045

