62
Energy =    -96.26842704 au
  N      4.20793761      4.74861917      2.91114169
  C      4.38210439      3.69366437      3.70038379
  N      3.33844531      2.88352625      3.57935051
  C      2.50018467      3.40883156      2.64131228
  C      3.04662893      4.57786871      2.21830915
  C      5.14418943      5.82512245      2.71174809
  C      6.08189691      5.49836009      1.55309954
  C      3.21789921      1.63713730      4.27207807
  H      5.16634991      3.56541127      4.41422730
  H      1.59734633      2.91536853      2.34562424
  H      2.69171507      5.31884170      1.53205081
  H      4.56838666      6.73152550      2.50539053
  H      5.71154521      5.95034410      3.63642409
  H      6.90299806      6.20875424      1.52002972
  H      5.54426384      5.53781047      0.60895249
  H      6.47905333      4.49365542      1.68098070
  H      4.02814841      0.98179822      3.94604621
  H      2.25340542      1.18368431      4.05553436
  H      3.31905408      1.82637359      5.34216882
  N     -0.03140453      6.65887053      3.96990693
  C      0.99126496      7.42524703      4.36984791
  N      1.84414495      6.67246715      5.06614633
  C      1.40309111      5.38238441      5.04570342
  C      0.23618502      5.36816247      4.35880708
  C     -1.10677159      7.06233531      3.10096087
  C     -0.79668021      6.68964632      1.65449135
  C      3.09349911      7.10434404      5.62158468
  H      1.01566040      8.49254423      4.30747141
  H      1.96837239      4.60998498      5.53980832
  H     -0.42537350      4.56181672      4.12176674
  H     -2.02871035      6.57920467      3.44246264
  H     -1.21991643      8.14515871      3.18601535
  H     -1.55583062      7.09148870      0.98959952
  H     -0.75272120      5.60989896      1.53666260
  H      0.17270466      7.10692968      1.38999898
  H      3.70101469      7.54127018      4.82849677
  H      3.59401330      6.23258984      6.04691727
  H      2.92959258      7.85123218      6.39950981
  N      7.19590301      2.82540540      5.79713847
  C      6.95728663      3.22557851      7.04308103
  N      6.26542979      2.28607644      7.67592605
  C      6.09392019      1.23772170      6.82297523
  C      6.68173631      1.57040146      5.64559057
  C      7.98820549      3.51392551      4.80863665
  C      9.45856071      3.14021407      4.97074608
  C      5.87156879      2.37007593      9.04886609
  H      7.18907960      4.19010088      7.44189727
  H      5.56933917      0.35062442      7.11315059
  H      6.73251163      1.06512361      4.70236798
  H      7.61235187      3.22168848      3.82279860
  H      7.85552865      4.58923800      4.95300235
  H     10.08105615      3.78902750      4.36076797
  H      9.62070801      2.10920882      4.66688700
  H      9.74454696      3.24081830      6.01623940
  H      6.75422814      2.64553146      9.63062697
  H      5.48921760      1.40700223      9.37994760
  H      5.09697277      3.13074669      9.16155245
 Cl      6.01445133      2.04012964      2.36100982
 Cl      3.80998151      3.94217324      6.70056355
 Cl     21.85830282     20.42510779    -22.58345415
 Cl      9.14119470      2.87410879      8.51880118
 Cl      2.34481280      7.87719003      2.24668820
