62
Energy =    -96.09331836 au
  N      9.16777553      5.16785054      1.66612508
  C      8.34497030      6.19074840      1.41622447
  N      7.54382518      5.86909291      0.38373031
  C      7.96307871      4.65524898     -0.09845765
  C      8.96908947      4.22279066      0.70398653
  C     10.13968508      5.16977171      2.73709184
  C     11.16522319      4.05924721      2.59704136
  C      6.68945935      6.81032156     -0.27598679
  H      8.20213120      7.03104329      2.06096042
  H      7.52915655      4.21680918     -0.97326852
  H      9.52950822      3.31418495      0.66556250
  H     10.63396620      6.14525131      2.70601333
  H      9.61562090      5.04205118      3.69205191
  H     11.88530640      4.15373767      3.40273438
  H     11.69387818      4.12899298      1.64850143
  H     10.68580572      3.08957748      2.68958667
  H      5.91180251      7.15984962      0.40542403
  H      6.23144818      6.34550435     -1.14603872
  H      7.30593090      7.66091068     -0.58450409
  N      5.42651125     -0.60020654      5.23855751
  C      5.07132772      0.47349609      6.08834238
  N      6.25880008      1.17861702      6.32517700
  C      7.29475854      0.50668719      5.75287574
  C      6.80500478     -0.54732894      5.06631971
  C      4.53624675     -1.15648169      4.25906307
  C      4.43508670     -0.30391714      2.98948826
  C      6.38287381      2.34895841      7.13598383
  H      4.18360521      1.04905039      5.84082061
  H      8.30108364      0.85339137      5.86506036
  H      7.31408383     -1.28494145      4.47993458
  H      4.89709119     -2.15915786      4.00009081
  H      3.54904920     -1.25530760      4.72294323
  H      3.74569709     -0.76034136      2.28236336
  H      5.41340778     -0.20214090      2.52503650
  H      4.08179668      0.69612079      3.23230942
  H      7.17830486      2.97855263      6.72976190
  H      6.61844911      2.08599477      8.17339091
  H      5.43879330      2.89156244      7.13197134
  N      6.89521685      3.16919568      2.90798178
  C      6.22534350      2.59753873      1.80432843
  N      7.00633743      1.45354128      1.46361137
  C      8.06078611      1.37984528      2.37686316
  C      7.95213178      2.38761973      3.26869523
  C      6.43366459      4.29610780      3.65498149
  C      5.00505564      4.08047852      4.15874635
  C      7.10549783      0.97395084      0.11826896
  H      6.00730126      3.28365881      0.97896791
  H      8.76781460      0.57551936      2.32639604
  H      8.52470719      2.66229751      4.13704712
  H      7.13007414      4.42465062      4.49007627
  H      6.45071395      5.19403530      3.01780629
  H      4.70199794      4.90475583      4.79863064
  H      4.95891330      3.15569989      4.72387253
  H      4.31644420      4.00766029      3.31984167
  H      6.10229466      0.87938348     -0.30074459
  H      7.58110155     -0.00838691      0.11576500
  H      7.68912551      1.64388744     -0.53340666
 Cl     10.57879742      4.62748554      7.39113994
 Cl      9.77389135      7.83833089      0.15566639
 Cl      9.30333368      4.03963202      5.99947227
 Cl    -35.28094472      7.55489576      8.25785621
 Cl     12.17848789      5.34612925      9.14712939
