62
Energy =    -96.26511040 au
  N      5.54550690      2.07853907      2.77152167
  C      4.51607758      2.26891650      3.59264535
  N      4.97168663      2.71127975      4.75884560
  C      6.32583528      2.83707269      4.67064134
  C      6.69099437      2.44052028      3.42519234
  C      5.48326407      1.64674069      1.39784241
  C      5.93217498      2.76827684      0.46972687
  C      4.20530668      3.11315809      5.90216536
  H      3.49264799      2.05262193      3.36489545
  H      6.88105652      3.14679326      5.53654351
  H      7.65161898      2.40945789      2.93719624
  H      6.13666056      0.77649875      1.27791772
  H      4.45062153      1.36004262      1.18262503
  H      5.78623588      2.47632169     -0.56696232
  H      6.98663118      2.97815562      0.63204091
  H      5.34674086      3.66058616      0.67599393
  H      3.66967303      4.03570771      5.67102064
  H      4.90000359      3.28327779      6.72672219
  H      3.48481413      2.34052352      6.17203585
  N      2.96481688      8.09752801      0.40406279
  C      3.35206661      7.58799541      1.57087673
  N      3.81904341      8.56470712      2.33631565
  C      3.72387294      9.73246334      1.63743446
  C      3.18425401      9.44233559      0.42133605
  C      2.37134444      7.35423341     -0.67925108
  C      0.91794031      7.76486122     -0.87992871
  C      4.30534771      8.41291109      3.67659836
  H      3.30505955      6.54430034      1.85582635
  H      4.06462271     10.66022368      2.04719129
  H      2.89215249     10.07034650     -0.41065522
  H      2.93082425      7.56650099     -1.59385256
  H      2.45812805      6.29261067     -0.43217819
  H      0.46304879      7.14154996     -1.64471071
  H      0.88029129      8.80412119     -1.20875014
  H      0.35847563      7.65272923      0.04642498
  H      4.38821624      7.35321026      3.90553958
  H      3.61280793      8.87913455      4.37862507
  H      5.28568587      8.90052238      3.78735549
  N      8.16445696      6.29894936      3.59149525
  C      8.81678064      5.14195228      3.65476239
  N      8.91269566      4.77448175      4.92742860
  C      8.30316280      5.71834886      5.69746952
  C      7.82907731      6.67670340      4.85473117
  C      7.82032842      7.02232319      2.39168549
  C      6.78673198      6.24999992      1.58156589
  C      9.56964897      3.59459563      5.41257905
  H      9.16388739      4.54135791      2.82308795
  H      8.20663642      5.59572034      6.75704742
  H      7.33625499      7.61459082      5.03392288
  H      7.45025474      8.00502151      2.70375021
  H      8.72646239      7.15931207      1.79500253
  H      6.45321105      6.85144245      0.74045113
  H      5.92433010      5.99481935      2.19165715
  H      7.22337757      5.32950538      1.20309379
  H      9.63113582      2.86766565      4.60590895
  H      9.00026452      3.19328281      6.25520459
  H     10.57692484      3.84078451      5.75434347
 Cl      7.19983896      9.88478988      4.08017227
 Cl      7.19867184      3.24777376      7.81638286
 Cl      9.49335521      2.68972860      1.66539410
 Cl      1.65657422     10.86714042     -2.09497505
 Cl      3.37559638      4.54495278      2.63754524
