62
Energy =    -96.28392243 au
  N      3.75186169      3.85653187      7.56634264
  C      3.00508528      3.29041527      8.50604964
  N      1.77083852      3.76669979      8.43070477
  C      1.71635729      4.64050912      7.38823417
  C      2.96041500      4.70212407      6.84827583
  C      5.16528394      3.63262838      7.40212279
  C      5.44325264      2.33002781      6.65927775
  C      0.64743010      3.33401824      9.20829996
  H      3.35807101      2.59033506      9.23440705
  H      0.81254233      5.14904611      7.12779756
  H      3.30666618      5.26108751      6.00338600
  H      5.58084260      4.48651199      6.86232463
  H      5.59786833      3.60999993      8.40627638
  H      6.47624694      2.02676543      6.80696038
  H      5.25866161      2.44881524      5.59488778
  H      4.78677706      1.54757643      7.03146265
  H      0.35648489      2.33639067      8.87181658
  H     -0.17660660      4.03089144      9.05979040
  H      0.92015796      3.28678328     10.26178677
  N      1.71393134      7.77251519      7.64429484
  C      1.15490016      7.28691638      8.74807830
  N      2.11116607      6.95735779      9.61054450
  C      3.31591949      7.24567554      9.04907174
  C      3.06543182      7.75402841      7.81096425
  C      0.99411663      8.19051098      6.46874885
  C      1.15397903      9.68572444      6.22291318
  C      1.92579007      6.36996372     10.90474592
  H      0.09693573      7.08090540      8.85269207
  H      4.23031085      6.98488683      9.54572598
  H      3.73652975      8.07932831      7.04409517
  H      1.36725675      7.61823371      5.60732937
  H     -0.05462790      7.93894446      6.63168382
  H      0.59677027      9.96368090      5.33343962
  H      2.19881377      9.94107288      6.06365581
  H      0.77607453     10.26093986      7.06698028
  H      2.00160066      7.13127528     11.68306725
  H      2.72717727      5.63464474     11.05286672
  H      0.94760414      5.89859538     10.95213515
  N      0.46590057      2.96580388      4.24523519
  C     -0.01249274      4.14345226      3.85575022
  N     -0.80443326      4.62423996      4.80652565
  C     -0.82198117      3.73280014      5.83758537
  C     -0.01833872      2.69252927      5.49124796
  C      1.43285017      2.16474140      3.53823076
  C      2.82124042      2.41500695      4.11160629
  C     -1.43497235      5.91200969      4.80242294
  H      0.21149673      4.63344663      2.93098543
  H     -1.37175501      3.93649800      6.73491827
  H      0.32342241      1.83857779      6.05143120
  H      1.16404031      1.11270862      3.66130643
  H      1.39053133      2.43421202      2.47919107
  H      3.56627623      1.87377203      3.53462366
  H      2.84296295      2.06806871      5.14270482
  H      3.04005112      3.47922089      4.08057784
  H     -0.72600722      6.63594946      4.40087522
  H     -1.68943589      6.16994009      5.83203561
  H     -2.33969565      5.90296769      4.19199674
 Cl      1.94090266      6.20753468      3.95945153
 Cl      2.08151769      0.90285849      7.21564537
 Cl     29.11468125     -0.68252873    -29.48386451
 Cl      4.69555108      4.75265885     10.51592327
 Cl     -1.67955749      6.00769333      8.22566394
