62
Energy =    -96.25757363 au
  N      4.54513988     14.35162821      4.98618232
  C      3.69055174     13.90575119      4.07225771
  N      4.23097555     12.85824132      3.45748062
  C      5.46479856     12.63096489      4.00048584
  C      5.65956610     13.56940244      4.96690066
  C      4.33360939     15.43208269      5.91560920
  C      3.55949987     14.93480938      7.13483737
  C      3.59483610     12.12667349      2.39785109
  H      2.70111200     14.27582807      3.81525525
  H      6.09775929     11.83130243      3.67152082
  H      6.49546178     13.81509254      5.60761166
  H      5.32573768     15.78689069      6.22448848
  H      3.77624569     16.22128096      5.40760758
  H      3.38767906     15.75597445      7.81951759
  H      4.13768931     14.17616321      7.65473169
  H      2.60334524     14.51882070      6.83700880
  H      4.16587741     12.22652322      1.47331803
  H      2.59351272     12.55281251      2.26088322
  H      3.51908666     11.07031101      2.65743368
  N      5.90881113      1.08127407      1.67931614
  C      6.11175712      1.44346515      2.95344740
  N      7.08886929      0.69053716      3.46079463
  C      7.44376758     -0.24712039      2.53209621
  C      6.70809679     -0.00721530      1.42138393
  C      4.84205063      1.57978887      0.85045995
  C      5.08971856      3.01744764      0.41002969
  C      7.60109881      0.75505500      4.79946706
  H      5.72598422      2.33304924      3.40553966
  H      8.16930368     -1.00469850      2.77819500
  H      6.69277796     -0.50568949      0.47457211
  H      4.76172725      0.92756568     -0.02100868
  H      3.91800799      1.50968253      1.43454416
  H      4.28494836      3.34315393     -0.24275336
  H      6.03065005      3.09623632     -0.12884992
  H      5.12436958      3.68055731      1.26827770
  H      8.11654630      1.70255740      4.96547147
  H      8.29693730     -0.07551371      4.93345521
  H      6.77453307      0.66462566      5.50421518
  N      5.55055656     -3.16855371      4.18396546
  C      4.22828298     -3.25410595      4.28825059
  N      3.82708714     -2.47643638      5.28285087
  C      4.91774354     -1.86763304      5.82360536
  C      6.00438650     -2.30505746      5.13345683
  C      6.38012257     -3.83343911      3.20964827
  C      5.83579456     -3.60502854      1.80582519
  C      2.45368246     -2.29088062      5.64973545
  H      3.54161664     -3.90569724      3.75474874
  H      4.84098642     -1.16730804      6.62869709
  H      7.05325507     -2.08879254      5.21742844
  H      7.38956656     -3.42577915      3.31889664
  H      6.40408991     -4.90414290      3.43233742
  H      6.53694396     -3.98722530      1.06895168
  H      5.69310669     -2.54134198      1.63877932
  H      4.88168552     -4.10893067      1.68009177
  H      1.87601672     -3.09949835      5.19676314
  H      2.10487953     -1.32991238      5.26984891
  H      2.34694572     -2.31006254      6.73346609
 Cl      1.79566473     -5.13663135      3.82194910
 Cl      4.05087030      0.52460013      3.98066654
 Cl      7.53354932     15.45143374      6.72837201
 Cl      0.90616650     14.02608152      2.66364439
 Cl      9.28413462     -2.20102291      4.36463766
