#B3LYP/6-31+G(d) OPT FREQ

62, Energy =    -96.26453716 au

0 1
  N      1.47937382      8.26158552      2.92181264
  C      0.80084016      7.84294432      3.98691952
  N      0.29809217      8.89809771      4.62611292
  C      0.57976810     10.01152536      3.88803959
  C      1.32131765      9.61463246      2.82532904
  C      2.19620917      7.42047787      2.00269792
  C      1.31555190      7.04528532      0.81577394
  C     -0.59492762      8.80474848      5.74096315
  H      0.82386700      6.84663007      4.37483206
  H      0.23952811     10.98469719      4.17847514
  H      1.74614067     10.17516542      2.01892282
  H      3.09437889      7.95670906      1.68161685
  H      2.50148267      6.52759303      2.55163186
  H      1.78900059      6.26865483      0.22153594
  H      1.13101565      7.91235077      0.18533048
  H      0.35955408      6.68446060      1.18838089
  H     -1.51129514      8.31499435      5.39904901
  H     -0.81793905      9.79994560      6.11997363
  H     -0.13956038      8.20273803      6.52638038
  N      4.65322580     10.54200614      3.99084662
  C      5.45516520      9.52807065      4.29616883
  N      5.81021790      8.90115458      3.18017080
  C      5.25774258      9.56587743      2.12403627
  C      4.53203996     10.59371123      2.63261769
  C      4.05525348     11.43160028      4.94942100
  C      4.94918940     12.64543811      5.18133761
  C      6.73529811      7.80871079      3.13632115
  H      5.72795140      9.22805587      5.28632202
  H      5.42736006      9.26622061      1.10953775
  H      3.95701207     11.35157753      2.14185913
  H      3.06838959     11.72269836      4.57810439
  H      3.92527193     10.85969248      5.86977289
  H      4.65095756     13.17226366      6.08276936
  H      4.89578800     13.33073126      4.33848413
  H      5.97905448     12.30999333      5.28104984
  H      7.70256706      8.16366455      3.50112143
  H      6.83300786      7.44688788      2.11490089
  H      6.38016319      7.00652641      3.78355529
  N      4.71195365      9.49277478      8.43059700
  C      5.32132255     10.68051948      8.52549951
  N      6.50542586     10.60703135      7.91774715
  C      6.69309318      9.31533274      7.50438274
  C      5.57240815      8.62127847      7.82435125
  C      3.43869416      9.17833217      9.02221990
  C      2.28887280      9.70292713      8.16877626
  C      7.48504725     11.64729639      7.80184075
  H      4.85186337     11.58659455      8.84522575
  H      7.58934575      9.02208864      6.99727467
  H      5.30151968      7.60264121      7.63951257
  H      3.36799114      8.09218217      9.10402971
  H      3.43280095      9.61734598     10.02543067
  H      1.33927835      9.40720344      8.60954355
  H      2.36555121      9.27891760      7.16786805
  H      2.31873666     10.78985987      8.10237890
  H      7.01273745     12.61417397      7.96355281
  H      7.92079858     11.60019128      6.80088555
  H      8.26687411     11.50823162      8.55092952
 Cl      7.82694682     10.72214276      4.55152865
 Cl      5.83399903     10.66725777     10.97612257
 Cl      3.40165160      8.00805870      5.28079302
 Cl     -1.41295184      7.10075136      2.98203867
 Cl     18.12674121    -13.34405745    -27.03842533

