62
Energy =    -96.25748277 au
  N      0.50992648      6.93599615      7.36359975
  C     -0.15665691      5.79687489      7.17508189
  N     -0.40799521      5.24145604      8.35413015
  C      0.09858108      6.05166507      9.32510779
  C      0.64618495      7.13435397      8.70257169
  C      0.91261304      7.84765178      6.32182573
  C     -0.29160630      8.62048334      5.79706106
  C     -1.09274426      3.99474790      8.54266517
  H     -0.38619921      5.34369363      6.23126085
  H     -0.01301757      5.84059978     10.36761610
  H      1.11123621      8.00408035      9.11381162
  H      1.63825486      8.53994698      6.75205382
  H      1.39245979      7.27016367      5.52506741
  H      0.03236063      9.42419748      5.14219967
  H     -0.83223227      9.03495388      6.64864552
  H     -0.95920987      7.96077618      5.24808569
  H     -0.86425294      3.60010392      9.52927275
  H     -0.74841743      3.30535046      7.76730210
  H     -2.16975316      4.13792936      8.44930881
  N      1.84862780      1.44908335      3.59586269
  C      2.92613797      2.21040499      3.77706804
  N      3.67992119      1.67116284      4.73483491
  C      3.11322014      0.48559769      5.10880550
  C      1.96580942      0.34977341      4.40041345
  C      0.78886990      1.70757472      2.65985031
  C      0.99818025      0.90942558      1.37836779
  C      4.96515359      2.14670802      5.15557395
  H      3.06169276      3.18793401      3.36659024
  H      3.55727480     -0.11885794      5.87445599
  H      1.22387009     -0.42181193      4.41523559
  H     -0.16137200      1.45935147      3.14106349
  H      0.80003751      2.77605614      2.44158734
  H      0.29318574      1.22712651      0.61534834
  H      0.86927623     -0.15475304      1.56078666
  H      2.01377014      1.08022747      1.02686326
  H      5.69588066      1.93197620      4.37150416
  H      5.23948067      1.63986193      6.08079252
  H      4.92785564      3.22530483      5.31344875
  N      3.07776558      3.21516802      8.92307036
  C      2.62430750      2.24418401      8.12275439
  N      1.63436154      1.60545709      8.74533581
  C      1.53056100      2.10690646     10.01390108
  C      2.43029264      3.11556213     10.12453793
  C      4.14554788      4.10736792      8.55986762
  C      3.63033008      5.22591399      7.65737543
  C      0.91686755      0.51152670      8.16206394
  H      2.81799404      2.16549210      7.07466803
  H      0.84239290      1.70597060     10.73002118
  H      2.65905665      3.76367172     10.94506665
  H      4.59000794      4.51131552      9.47367740
  H      4.89832180      3.50759546      8.03779153
  H      4.46338238      5.76132183      7.20957456
  H      3.02591098      5.93033299      8.22497043
  H      3.01330571      4.80306276      6.86730492
  H      0.51582515      0.84068488      7.20080807
  H      0.10930464      0.20148674      8.82248866
  H      1.60529632     -0.31907987      7.99500735
 Cl     -1.45517676      8.89187181      8.94166792
 Cl      0.77252388      3.15342191      5.94337450
 Cl      4.37440641      1.64662749      1.76520837
 Cl     44.11524599     17.70337227     -2.27265606
 Cl      4.47607248      0.61333780      8.32846438
