#B3LYP/6-31+G(d) OPT FREQ

62, Energy =    -96.28030605 au

0 1
  N      3.96458396      2.83367561      7.95806212
  C      3.09726124      3.52540124      8.68763265
  N      3.20225525      3.15762191      9.96077856
  C      4.18867678      2.22565455     10.05446947
  C      4.66301055      2.02051995      8.79748401
  C      4.20811314      2.92397491      6.53872277
  C      3.77483151      4.27264199      5.99413131
  C      2.48383454      3.75431456     11.04769531
  H      2.35920183      4.22373510      8.34384463
  H      4.47971640      1.79013420     10.98803738
  H      5.43058949      1.36500586      8.44146206
  H      5.28162338      2.78805962      6.38575252
  H      3.68439590      2.10450845      6.01640584
  H      4.13859344      4.37993489      4.97669672
  H      4.19389595      5.06380612      6.61216086
  H      2.69022991      4.34325962      5.99522838
  H      3.03457917      4.62504757     11.40810066
  H      2.36007103      3.03387705     11.85399562
  H      1.51047781      4.08326704     10.67707476
  N      1.26202850      7.47119079      8.72347659
  C      1.99684531      7.17106626      7.66218365
  N      1.28821807      7.41404386      6.56210835
  C      0.06653386      7.88298873      6.93583523
  C      0.04902605      7.91267964      8.29562868
  C      1.69222862      7.32851071     10.09001456
  C      1.84200350      8.68757379     10.76223949
  C      1.70633679      7.26395930      5.19627967
  H      2.99661490      6.76826495      7.73987219
  H     -0.67798782      8.11759017      6.19882737
  H     -0.73492036      8.17941473      8.97286525
  H      0.95655604      6.70998215     10.60845324
  H      2.65177966      6.80411244     10.06287784
  H      2.16240236      8.54853340     11.79075585
  H      0.90098980      9.23490863     10.76221853
  H      2.59355816      9.28071272     10.24587368
  H      2.38278827      8.07440637      4.91806901
  H      0.81222856      7.30786169      4.56362793
  H      2.22067369      6.31499848      5.06006105
  N      0.26732801      3.52298734      4.01451775
  C     -0.60062505      4.47795378      4.34600355
  N     -0.90235820      4.35706644      5.63138155
  C     -0.20967812      3.30032208      6.13886376
  C      0.52824057      2.77227603      5.12425538
  C      0.80646085      3.28767033      2.69642044
  C      2.32867791      3.31242632      2.69910240
  C     -1.83422504      5.18159379      6.34339063
  H     -0.95011178      5.29306006      3.73161701
  H     -0.26412949      3.04410907      7.17759437
  H      1.21753758      1.93851795      5.10139592
  H      0.46677430      2.30468608      2.35601096
  H      0.40063465      4.05729020      2.03458104
  H      2.69425971      3.14136971      1.69040154
  H      2.71183015      2.52238219      3.34428838
  H      2.69282500      4.27696836      3.04373769
  H     -1.44984511      5.35839697      7.34861907
  H     -2.79830825      4.67610131      6.42057219
  H     -1.95436960      6.11639412      5.79751092
 Cl     -1.35082261      7.52698539      3.85953824
 Cl      2.84129643      0.51384741      4.75652623
 Cl     33.97153880     -1.67280965    -34.99076160
 Cl      4.62043275      5.86092628      9.05488761
 Cl     -0.05739204      4.73995097      9.13972895

