#B3LYP/6-31+G(d) OPT FREQ

62, Energy =    -96.27487718 au

0 1
  N      5.29091523      0.30889161      7.13238855
  C      5.04974878     -0.20661688      8.33190674
  N      4.25540871      0.62043216      9.00355152
  C      3.97263252      1.68801570      8.20643851
  C      4.62292595      1.48939784      7.02641185
  C      6.11668657     -0.30495350      6.12512007
  C      5.27780072     -1.17988248      5.19981323
  C      3.80294001      0.45987564     10.35476204
  H      5.55930013     -1.07847270      8.71499035
  H      3.39228499      2.50762234      8.58564485
  H      4.71903604      2.10723475      6.15635972
  H      6.59490420      0.49851399      5.55730617
  H      6.86718910     -0.90592160      6.64404861
  H      5.91842273     -1.62306172      4.44293141
  H      4.51426966     -0.58515875      4.70166210
  H      4.79577851     -1.97925337      5.76066078
  H      2.87123056     -0.10854104     10.38223061
  H      3.62459622      1.46062633     10.77009185
  H      4.56132650     -0.06273814     10.93327013
  N      8.13532540      8.23454823      4.41834236
  C      8.55815589      7.18011196      5.11261420
  N      8.91438887      6.22331245      4.26686928
  C      8.70111213      6.67351491      2.99775123
  C      8.21381077      7.94131973      3.09322080
  C      7.70204248      9.50420382      4.95068956
  C      8.78878588     10.12456138      5.82001840
  C      9.43712053      4.94719972      4.65997886
  H      8.67055346      7.07877518      6.18535003
  H      8.90346809      6.06863032      2.13830650
  H      7.93867416      8.68164808      2.35721067
  H      7.48079545     10.14732868      4.08875721
  H      6.79202583      9.35066718      5.53791453
  H      8.43597514     11.07095430      6.22053644
  H      9.67740473     10.31376130      5.22240390
  H      9.05168271      9.46732547      6.64623653
  H     10.23424648      4.64445643      3.98266612
  H      8.64647901      4.18695698      4.64369140
  H      9.82013869      5.04100126      5.67707523
  N      6.87374320      3.92243590      8.60422464
  C      7.84307950      3.40778746      7.86077215
  N      8.05666099      2.15328164      8.23510595
  C      7.19593640      1.85858828      9.25000027
  C      6.44515088      2.97178976      9.47932054
  C      6.34285948      5.25144040      8.43971890
  C      5.37491269      5.28481218      7.26171416
  C      8.98026892      1.23733381      7.62968371
  H      8.38736368      3.94773392      7.11311554
  H      7.19486294      0.88615218      9.70117107
  H      5.62880632      3.15656203     10.15634660
  H      5.82842318      5.52718788      9.36159973
  H      7.19270055      5.91897740      8.26690513
  H      5.12033128      6.31210194      7.01621933
  H      4.46460858      4.74676053      7.51529597
  H      5.82903878      4.81501120      6.39262818
  H      8.75821840      0.22979247      7.98528863
  H     10.00630691      1.50248773      7.88834989
  H      8.85946478      1.28792708      6.54745485
 Cl      7.66167046     -1.75048432      8.97384681
 Cl      3.36113028      3.65950719     10.79986553
 Cl      9.62922083      6.15201929      7.91819236
 Cl      6.97741836      2.71233759      4.99641056
 Cl      7.44630772     10.84854587      1.86386420

