#B3LYP/6-31+G(d) OPT FREQ

62, Energy =    -96.26167331 au

0 1
  N      2.59624123      4.58073811      7.55553027
  C      3.57776528      4.07687245      8.30030551
  N      4.74223109      4.56222434      7.89399976
  C      4.50554647      5.35638356      6.81491196
  C      3.16494152      5.35965587      6.59205545
  C      1.21272271      4.16525642      7.64747337
  C      0.23514641      5.23899944      7.20945127
  C      6.02537972      4.32600700      8.48523676
  H      3.44055297      3.41861043      9.13327905
  H      5.29875640      5.84745906      6.29245841
  H      2.60740352      5.82408675      5.80103784
  H      1.10230279      3.27001884      7.02998271
  H      1.02374082      3.87621244      8.68433936
  H     -0.75900765      4.80342009      7.11056391
  H      0.50741891      5.65556263      6.24533229
  H      0.19190176      6.04393717      7.93917053
  H      6.32660749      5.22631684      9.02973986
  H      6.75466171      4.10920273      7.70604360
  H      5.96209316      3.48029393      9.16523316
  N      2.35195622      8.24037681      8.17472582
  C      3.48468648      8.33418563      7.47956530
  N      3.19433423      8.66271814      6.22392589
  C      1.84252891      8.78255912      6.11216555
  C      1.31222769      8.52168316      7.33633682
  C      2.28272644      7.90728317      9.57579879
  C      1.87423662      9.11801806     10.40750856
  C      4.11737919      8.77517675      5.13415902
  H      4.45601867      8.13337770      7.92057038
  H      1.36769635      8.98656451      5.17559967
  H      0.29005757      8.50396067      7.65224562
  H      1.56499109      7.09373814      9.71112034
  H      3.28328013      7.56989207      9.86895266
  H      1.83270208      8.83951162     11.45626236
  H      0.89752641      9.49229575     10.10575830
  H      2.60859789      9.91118777     10.29219839
  H      4.14243513      9.79874367      4.75781964
  H      3.77024868      8.10942943      4.33627529
  H      5.10861625      8.48157930      5.46786933
  N      1.90798866      3.08167890      3.50420292
  C      1.10813355      4.04270976      3.04719028
  N     -0.00927245      4.05323840      3.76095172
  C      0.07244848      3.07601578      4.70374138
  C      1.28070273      2.46753509      4.54893612
  C      3.24159118      2.79471200      3.03714549
  C      4.26654868      3.56422695      3.86095426
  C     -1.09379732      4.98432519      3.63801772
  H      1.34147082      4.71287925      2.24504718
  H     -0.74503577      2.92980141      5.39258037
  H      1.77249152      1.70933222      5.12753493
  H      3.41402904      1.72093032      3.13977263
  H      3.30075061      3.07436717      1.98100093
  H      5.26146793      3.41546715      3.45083666
  H      4.24579191      3.19978934      4.88627326
  H      4.02697070      4.62435200      3.85206703
  H     -0.69668037      5.99745319      3.70671145
  H     -1.79426847      4.79396323      4.45817414
  H     -1.59967952      4.86170465      2.67994466
 Cl     -2.72428882      3.74926328      6.26976400
 Cl      3.66154607      1.80199011      6.84978189
 Cl     21.40555444      3.99410303    -18.86026651
 Cl      5.63485677      7.45161110      9.56733483
 Cl      1.96074143      6.76378591      3.74602839

