#B3LYP/6-31+G(d) OPT FREQ

62, Energy =    -96.27440802 au

0 1
  N      3.73932764      6.76942539      5.45098481
  C      3.78458670      7.45939340      6.58711490
  N      4.65491245      8.45407897      6.45463714
  C      5.15229647      8.42488822      5.18665180
  C      4.57621335      7.36921266      4.55564460
  C      2.88575640      5.64608008      5.16162592
  C      1.60428213      6.12881878      4.48980616
  C      4.96698478      9.45304557      7.43294538
  H      3.23895913      7.22538521      7.47706072
  H      5.90293758      9.12600845      4.87828381
  H      4.72052441      6.96612882      3.57462227
  H      3.44835546      4.96039511      4.51993055
  H      2.64860823      5.14933491      6.10502839
  H      0.88931722      5.31400778      4.41066180
  H      1.81811402      6.50904193      3.49380464
  H      1.17488632      6.93331099      5.08533161
  H      4.17233116     10.20190115      7.44876127
  H      5.91976435      9.91188786      7.15856388
  H      5.03911810      8.99760316      8.42005045
  N      7.59743149      3.17642188      6.26189867
  C      8.44920712      3.43428889      7.25223497
  N      9.58941283      3.87036416      6.73220751
  C      9.47645501      3.88609635      5.37654757
  C      8.22208178      3.45017799      5.08100917
  C      6.23760184      2.70386065      6.38126574
  C      5.46351659      3.43200101      7.47192060
  C     10.73778475      4.29186666      7.47985070
  H      8.25508509      3.42096565      8.31860514
  H     10.26967059      4.27504268      4.76582252
  H      7.70051816      3.37183820      4.14763526
  H      5.76035379      2.88228216      5.41136615
  H      6.25628599      1.62698108      6.58592394
  H      4.49255392      2.95926866      7.59614463
  H      5.30772611      4.46713158      7.18299216
  H      5.98866212      3.40718319      8.42302481
  H     10.41533944      4.60784055      8.47013692
  H     11.22065863      5.10573999      6.93069780
  H     11.44844407      3.46884186      7.57792677
  N      8.65058134      7.11985124      7.37899258
  C      9.10031976      7.50115702      6.18926970
  N      8.33429726      6.97015689      5.24768906
  C      7.33928836      6.26003906      5.84708024
  C      7.53516111      6.35893242      7.18937933
  C      9.17984777      7.48949851      8.66684114
  C      8.46591338      8.73189753      9.19196851
  C      8.53565769      7.12804335      3.83917642
  H      9.98375195      8.07689616      6.00367848
  H      6.60298899      5.73534276      5.26844153
  H      7.01694764      5.93433054      8.02440159
  H      9.03434580      6.64073872      9.34299517
  H     10.24735630      7.68557682      8.54705826
  H      8.99266143      9.13343637     10.05341943
  H      7.44932631      8.48544366      9.48711605
  H      8.42588031      9.48501875      8.40759887
  H      8.35037300      8.16704085      3.56298923
  H      7.85406736      6.46944000      3.30641964
  H      9.57189315      6.87246607      3.60915042
 Cl      7.97259644     10.07346541      5.95907106
 Cl      8.22774478      4.38515311     10.22335581
 Cl      5.47691284      4.19364258      3.46181953
 Cl     11.71746624      6.18666626      4.93664791
 Cl      1.43630831      8.86143597      6.68254924

