62
Energy =    -96.27332968 au
  N      5.00509900      7.88012690      7.06416012
  C      5.91600672      7.21818177      7.77023571
  N      6.01784729      5.98126009      7.29056822
  C      5.14805442      5.85605016      6.24902419
  C      4.51130103      7.05122553      6.10726467
  C      4.63960763      9.25726491      7.26105145
  C      5.49051991     10.17118283      6.38503112
  C      6.84019862      4.92770492      7.80746638
  H      6.38472951      7.60837102      8.65831536
  H      5.02733957      4.92910418      5.72976266
  H      3.71132448      7.36643342      5.46626449
  H      3.58308310      9.35154342      6.98933171
  H      4.79737536      9.48660683      8.31595277
  H      5.19961372     11.20409250      6.55145670
  H      5.33947785      9.93576891      5.33390346
  H      6.54671890     10.06376934      6.62632142
  H      7.61073406      4.65360333      7.08561767
  H      6.19204963      4.06265454      7.98967598
  H      7.30399003      5.25131642      8.73571229
  N      2.41146393      8.04587326     10.06034385
  C      3.21386011      7.35788470     10.87109704
  N      3.58942840      6.24069556     10.26166039
  C      3.04805652      6.23299817      9.01172866
  C      2.30764084      7.36396788      8.88064182
  C      1.78444669      9.30836752     10.36636252
  C      2.70324322     10.48194358     10.04090465
  C      4.50975366      5.26256296     10.76246281
  H      3.47897419      7.64067721     11.86872904
  H      3.22983551      5.40663465      8.34933923
  H      1.78620880      7.75959377      8.02444382
  H      0.86534168      9.37464929      9.77995694
  H      1.53375147      9.31189006     11.43153422
  H      2.32639377     11.39011961     10.50317325
  H      2.75361785     10.62857965      8.96655929
  H      3.70322795     10.27915046     10.41715178
  H      5.48192891      5.73839243     10.90141808
  H      4.57833377      4.45642549     10.03081963
  H      4.16778885      4.86722755     11.71917301
  N      1.25353146      3.59635862      3.38834483
  C      0.40457486      4.42006962      3.99504473
  N      0.87992024      4.72174231      5.19809123
  C      2.07280485      4.08579971      5.36258743
  C      2.30745836      3.38001506      4.22349780
  C      1.06750389      3.06964880      2.06011334
  C      1.78640587      3.93555304      1.03164037
  C      0.26786846      5.60501982      6.14729621
  H     -0.56678024      4.65486570      3.57040705
  H      2.64870654      4.13676790      6.26788559
  H      3.12625595      2.74020798      3.96670758
  H      1.44825652      2.04598273      2.03520793
  H     -0.01657832      3.07579519      1.87313199
  H      1.63717193      3.52086666      0.03916200
  H      2.85554898      3.98458342      1.23648903
  H      1.37797048      4.94226705      1.04857504
  H      0.69719212      6.61276089      6.06124855
  H      0.44823417      5.23798196      7.15562384
  H     -0.80032185      5.65815421      5.95106453
 Cl     -2.11616616      3.69292791      2.38557035
 Cl      4.07202519      3.25999747      7.94983812
 Cl     38.63171531     -4.72527173    -29.16387312
 Cl      5.71213233      8.54822527     10.65047890
 Cl      1.57678694      8.68502900      5.99839287
