#B3LYP/6-31+G(d) OPT FREQ

62, Energy =    -96.25297494 au

0 1
  N      0.61449576      6.91064065      6.12894572
  C      1.33809644      6.75493709      5.02647167
  N      0.76638957      7.43079990      4.03558944
  C     -0.36171534      8.03107612      4.52634798
  C     -0.45224384      7.70528294      5.84374708
  C      0.89358236      6.36264198      7.43583424
  C      2.19157903      6.92825578      7.99417082
  C      1.27240651      7.50179511      2.69291344
  H      2.27464438      6.22468232      4.91208600
  H     -0.99965470      8.63396154      3.91305735
  H     -1.16598631      7.94291519      6.62330670
  H      0.04248200      6.63768694      8.07763788
  H      0.95877775      5.27339433      7.35517457
  H      2.40816177      6.45875056      8.94895961
  H      2.09157992      7.99643278      8.15636335
  H      3.02253059      6.75022256      7.31736779
  H      0.61952888      6.95262748      2.01084547
  H      2.27388564      7.05706856      2.68416395
  H      1.33347686      8.54185569      2.36863131
  N      3.34595627      3.83111316      0.71790204
  C      3.32795208      3.66466649     -0.60300041
  N      4.57821930      3.68820308     -1.04899526
  C      5.41724801      3.87228625      0.00885871
  C      4.63940300      3.95881977      1.12241804
  C      2.18557238      3.85727665      1.57369064
  C      1.58130931      2.46464973      1.69962074
  C      5.00768412      3.59555381     -2.41388148
  H      2.42609540      3.44301841     -1.17776845
  H      6.47249673      3.99376507     -0.13449967
  H      4.89429787      4.14134563      2.14680843
  H      2.50014456      4.26068516      2.53908148
  H      1.44623483      4.52133042      1.12250469
  H      0.73678402      2.48608988      2.38282323
  H      2.31739352      1.75703057      2.07241354
  H      1.23088001      2.14349783      0.72097655
  H      5.78351001      4.35515284     -2.57457342
  H      4.15896865      3.75827444     -3.07673657
  H      5.43526228      2.60971817     -2.60983871
  N      7.83728537      9.63022659      2.22133530
  C      6.78029844      8.82033723      2.26813525
  N      6.71444751      8.12745678      1.13689581
  C      7.76022744      8.49480050      0.34921974
  C      8.46997715      9.43883319      1.03177249
  C      8.29794851     10.52350159      3.25754125
  C      9.06895211      9.75839713      4.32762775
  C      5.69093461      7.19206337      0.76790222
  H      6.09276273      8.72211144      3.08504669
  H      7.91939421      8.02226000     -0.60160561
  H      9.33052991     10.03633649      0.77927006
  H      8.96579722     11.25322370      2.76867836
  H      7.43497153     11.03141522      3.69561621
  H      9.39904315     10.45334426      5.09543797
  H      9.94618143      9.29395024      3.88489667
  H      8.45131396      8.98787035      4.78844339
  H      5.32719470      6.66527202      1.65089157
  H      6.10713686      6.49457336      0.03588211
  H      4.85138384      7.71980824      0.30986472
 Cl      0.63817643      2.54414178     -1.73715410
 Cl      7.43092057      5.74677550     -1.71617290
 Cl     -1.88477019      7.69682921      8.67968826
 Cl     10.36651673     12.12227721      1.34677156
 Cl      4.16319498      6.12849451      3.72649259

