#B3LYP/6-31+G(d) OPT FREQ

62, Energy =    -96.26595383 au

0 1
  N      6.85742337      8.18418515      0.67799737
  C      5.97083901      9.16949842      0.62580688
  N      5.83691974      9.69872933      1.83814105
  C      6.69925587      9.06427603      2.68229758
  C      7.33823415      8.11499584      1.95375112
  C      7.28968109      7.38646118     -0.43695588
  C      8.51558139      8.01619279     -1.08962652
  C      5.08077868     10.87531045      2.14819234
  H      5.38439037      9.42073740     -0.23232079
  H      6.75146887      9.31245063      3.72607908
  H      8.08729656      7.40517249      2.23724882
  H      7.49753433      6.37581449     -0.07428434
  H      6.45966179      7.33354584     -1.14346809
  H      8.73400790      7.53299016     -2.03839047
  H      9.38350806      7.93043369     -0.43887667
  H      8.31728807      9.07366778     -1.25746048
  H      5.12932139     11.05185570      3.22010359
  H      4.04297268     10.75427121      1.83821747
  H      5.52099250     11.71570059      1.60456196
  N      5.68768332      5.72080170      5.90647585
  C      6.28255414      6.54948938      6.75772905
  N      6.71617243      5.85364330      7.80391325
  C      6.39686324      4.54420046      7.62120225
  C      5.74930722      4.45981532      6.42778627
  C      5.11918709      6.10316406      4.63280440
  C      5.79633633      5.37707053      3.48134170
  C      7.40982625      6.35863720      8.95555417
  H      6.33567321      7.62409593      6.60646329
  H      6.68492793      3.81197429      8.36314801
  H      5.33184926      3.61314179      5.92434595
  H      4.04998351      5.87482924      4.63787243
  H      5.24735804      7.18195218      4.53383772
  H      5.36224636      5.71598164      2.54173905
  H      5.65338830      4.30137388      3.55520451
  H      6.86185102      5.59032507      3.47480006
  H      8.30258893      6.90175857      8.64813563
  H      7.68490680      5.49952026      9.57976525
  H      6.76435960      7.03330258      9.51755500
  N      1.64568576      8.40715792      2.59247744
  C      0.92784813      9.08709879      3.48156567
  N      1.72802865      9.47237595      4.46807066
  C      2.99145279      9.02781190      4.20903110
  C      2.93731249      8.35965050      3.02493321
  C      1.17251350      7.85031696      1.34878443
  C      0.73249142      8.95782368      0.39823804
  C      1.29596149     10.23714637      5.60305135
  H     -0.13392137      9.32436812      3.46628349
  H      3.82497292      9.22255153      4.86292941
  H      3.68565162      7.84617971      2.44842227
  H      2.00116897      7.27726352      0.91903978
  H      0.33233904      7.18240239      1.55752157
  H      0.37816805      8.52174699     -0.53160575
  H      1.57029878      9.61329538      0.17237952
  H     -0.06852917      9.54579409      0.84124961
  H      1.84917726     11.17487219      5.65293679
  H      1.47453531      9.67873877      6.52197837
  H      0.22741930     10.43663931      5.48558580
 Cl      7.29274194     11.21697742     -0.46911168
 Cl      4.23740871      6.51861930      0.60986816
 Cl      5.80442057      9.58309707      5.93623565
 Cl      7.80431663      3.32000531     10.23879152
 Cl     -1.86789192     10.24929617      4.27633291

