62
Energy =    -96.08890675 au
  N      7.36001484     11.03175265      8.42595063
  C      7.27949172      9.72675009      8.14026077
  N      6.33456797      9.56170542      7.20924807
  C      5.82259460     10.78446722      6.87454299
  C      6.47124279     11.71468301      7.64214704
  C      8.31682549     11.63955135      9.35789509
  C      9.25079967     12.59739701      8.64221500
  C      6.04184578      8.31326681      6.51448415
  H      7.91173810      8.95045010      8.53171216
  H      5.07204841     10.90120247      6.11452420
  H      6.38690128     12.78537536      7.66331829
  H      7.74161635     12.14249212     10.13473601
  H      8.86563591     10.81867763      9.81363490
  H      9.94635239     13.01835978      9.36691838
  H      8.70294213     13.41185235      8.17295208
  H      9.81131349     12.08089058      7.86928848
  H      6.46421914      8.36849945      5.51482732
  H      4.96443431      8.17773392      6.47524342
  H      6.51196266      7.49670133      7.05060461
  N      2.17276556      6.70120895      8.20535039
  C      1.15950036      6.04454227      8.78259976
  N      1.36902004      4.73375746      8.62496097
  C      2.54965680      4.54953526      7.96054419
  C      3.05932225      5.79274065      7.69607611
  C      2.35121007      8.15777406      8.20676757
  C      3.61702455      8.55728971      8.94166552
  C      0.57978909      3.67208393      9.23892022
  H      0.35371380      6.48455872      9.34179999
  H      2.94261730      3.57099787      7.75409351
  H      3.97790506      6.08558869      7.22237847
  H      2.36780474      8.48580900      7.16781883
  H      1.46803412      8.57507515      8.68487357
  H      3.70603093      9.64264923      8.92520906
  H      4.50110482      8.12916305      8.47390199
  H      3.58532259      8.21830407      9.97241949
  H      1.14302562      3.26316845     10.07337598
  H      0.37871392      2.90803454      8.49291635
  H     -0.34522291      4.09614561      9.61273662
  N      2.98934522      6.44511879      3.61683803
  C      1.92982378      6.65792845      4.40630665
  N      0.92447450      5.89288866      3.96939449
  C      1.35739725      5.15856911      2.90044953
  C      2.66315209      5.50587896      2.67764461
  C      4.31493027      7.04931775      3.79345694
  C      5.36883006      5.99418528      4.07267867
  C     -0.35594667      5.71373780      4.64423428
  H      1.90611988      7.27727635      5.28463328
  H      0.72741432      4.44158468      2.40686053
  H      3.37105315      5.13943814      1.95754668
  H      4.53965033      7.61394475      2.88902670
  H      4.22610584      7.74832944      4.62183982
  H      6.33218309      6.48494566      4.20422116
  H      5.44959877      5.28488756      3.25166330
  H      5.12634234      5.43877729      4.97328496
  H     -0.35276312      4.74523998      5.13694669
  H     -1.15237025      5.77337822      3.90743243
  H     -0.46745193      6.48938258      5.39333771
 Cl     -1.40612576      2.29614913      9.60447666
 Cl      8.46156675      8.08172263      4.40836107
 Cl     42.40735739     -9.43566790    -24.96215078
 Cl      2.32911472      8.41451529     11.51830595
 Cl      4.19113424     12.41490667      3.00442020
