#B3LYP/6-31+G(d) OPT FREQ

62, Energy =    -96.23461749 au

0 1
  N      3.39884178      2.47078901      7.96733043
  C      2.96527461      1.28633109      7.55814665
  N      3.36358938      1.08106417      6.31053616
  C      4.06485328      2.17124277      5.89850214
  C      4.08495951      3.04491352      6.93697916
  C      3.09500167      3.09243210      9.23252206
  C      3.23414998      2.11048839     10.38898220
  C      3.09290539     -0.08650470      5.52658942
  H      2.40656842      0.58939937      8.14575191
  H      4.48117029      2.22252118      4.91244301
  H      4.52751883      4.01549427      7.02477350
  H      3.78307687      3.93255105      9.35719003
  H      2.06988263      3.47801613      9.17867180
  H      3.28891893      2.64819755     11.33173460
  H      4.13701681      1.51826593     10.26199833
  H      2.38368700      1.43567949     10.42558466
  H      3.50274123     -0.96290142      6.02964229
  H      3.55829896      0.03525815      4.54986602
  H      2.01478716     -0.20667780      5.41610628
  N      1.92257836      1.96851522      1.80531695
  C      0.83358438      1.24248348      2.13314718
  N      0.49289074      1.52624133      3.40717195
  C      1.37422836      2.45081362      3.88379829
  C      2.26051726      2.72332700      2.89291194
  C      2.64463024      1.93186415      0.56281890
  C      2.41555786      3.19940281     -0.25435901
  C     -0.59063201      0.95833152      4.15448457
  H      0.34874683      0.52878303      1.50111866
  H      1.29780466      2.79520101      4.89973349
  H      3.11790246      3.36189033      2.88445952
  H      3.70593043      1.81844418      0.80753805
  H      2.31831539      1.05383261      0.00221829
  H      2.98408541      3.14661713     -1.17836537
  H      2.74099903      4.07369292      0.30318978
  H      1.36110212      3.31537243     -0.49848580
  H     -0.48122470      1.27820862      5.19643527
  H     -0.56292265     -0.12997895      4.09911808
  H     -1.55054018      1.30639179      3.77019314
  N      6.96875162      0.07738630      5.32592348
  C      7.33024420      0.49797582      4.11471884
  N      7.67646606      1.78733302      4.18590629
  C      7.49713527      2.19480841      5.48013121
  C      7.06539229      1.12265732      6.19298726
  C      6.55563498     -1.25441317      5.68830405
  C      7.76322032     -2.15867622      5.91127189
  C      7.94784037      2.61669592      3.04848871
  H      7.35496521     -0.09474972      3.22443383
  H      7.68326248      3.20293861      5.78586559
  H      6.75184517      1.00564228      7.21705308
  H      5.98427382     -1.16221077      6.62017413
  H      5.92108035     -1.64808577      4.89152822
  H      7.42345319     -3.14934505      6.19747962
  H      8.37895194     -1.76359172      6.71514639
  H      8.36770266     -2.24194128      5.00892241
  H      8.84414940      2.27945013      2.52600879
  H      8.07771935      3.64614734      3.36987106
  H      7.09119735      2.54539206      2.37285764
 Cl      0.45946662      2.27515884      7.01441929
 Cl      5.02332683      1.12507848      2.71106302
 Cl      5.26573941     -0.13632414      8.53671581
 Cl    -22.00767775     27.35756974     25.72439668
 Cl      7.25395152     -0.70444855    -26.29279953

