#B3LYP/6-31+G(d) OPT FREQ

62, Energy =    -96.23946193 au

0 1
  N      0.88927013      1.23076027      9.12390663
  C      0.09654136      0.16444882      9.09466694
  N      0.21620491     -0.42338634      7.90892516
  C      1.11305407      0.27799834      7.16031204
  C      1.53929023      1.31846568      7.92569503
  C      1.04171511      2.09989547     10.26521285
  C      2.38245555      1.86320349     10.95215331
  C     -0.47927439     -1.59350363      7.45156575
  H     -0.56236927     -0.08217796      9.92979290
  H      1.37101331     -0.05853185      6.16795195
  H      2.23669108      2.10130123      7.70664986
  H      0.95872347      3.13795551      9.93009021
  H      0.21748685      1.85917381     10.95204899
  H      2.49649037      2.56305815     11.77421670
  H      3.21270786      1.99622316     10.26040505
  H      2.41564628      0.85413504     11.35421547
  H     -0.37825090     -2.39959606      8.17801256
  H     -0.04283038     -1.89048269      6.49237796
  H     -1.53894382     -1.37246933      7.31656598
  N     13.26550373      5.99857068      5.60756099
  C     12.11101351      6.49509330      6.04657964
  N     12.29772689      7.75357375      6.43646905
  C     13.60603316      8.07083272      6.23931653
  C     14.21386503      6.96725223      5.71448106
  C     13.47598836      4.68935518      5.04213006
  C     13.03954665      4.66260065      3.58173225
  C     11.31432521      8.63450369      6.99783244
  H     11.18030076      5.96379108      6.08530153
  H     13.94741674      9.07116795      6.44776342
  H     15.23515001      6.74282676      5.45359782
  H     14.55999089      4.48643230      5.11153594
  H     12.91239981      3.95728468      5.62602497
  H     13.20059189      3.66889002      3.17547507
  H     13.63685391      5.36642364      3.00896230
  H     11.98585841      4.92158406      3.47532483
  H     10.36019745      8.51176781      6.48843173
  H     11.69108408      9.66695504      6.88316440
  H     11.18611782      8.42949365      8.06122376
  N      0.62228135      0.23805368      1.69805764
  C      0.21040310     -0.42849301      0.62236518
  N      1.14122227     -1.30905779      0.28016674
  C      2.16985056     -1.21799566      1.17020943
  C      1.84069330     -0.24639761      2.06445265
  C     -0.14891041      1.22360991      2.41514790
  C     -1.07630155      0.53776842      3.41391889
  C      1.03629786     -2.19010038     -0.84823380
  H     -0.66429149     -0.24648769      0.00076606
  H      3.03657749     -1.84438673      1.11932423
  H      2.36147396      0.10150348      2.93130567
  H      0.54799464      1.88053732      2.94073842
  H     -0.71868741      1.80576295      1.68562002
  H     -1.55054868      1.27614251      4.05456832
  H     -0.49601015     -0.15345834      4.02558380
  H     -1.84442584     -0.02300877      2.88800627
  H      0.71704341     -3.18299129     -0.52521843
  H      1.99823786     -2.26806070     -1.35417179
  H      0.28009200     -1.76681794     -1.52238438
 Cl     -1.46982215      0.51454165     11.72714622
 Cl     16.66022196      4.83479942      5.25811925
 Cl      1.28019050     -1.67363047      4.58110234
 Cl     13.02002912     11.29581625      6.63067549
 Cl     -1.35913096     -0.25230392     -2.01338403

