#B3LYP/6-31+G(d) OPT FREQ

62, Energy =    -96.25910362 au

0 1
  N      5.04671994      1.24275196      1.34827034
  C      5.41817647      0.71682485      2.52508231
  N      6.10384483      1.64337918      3.20908744
  C      6.29816505      2.72404876      2.38994549
  C      5.63561995      2.47769746      1.23636807
  C      4.40420565      0.50650630      0.28846447
  C      2.94228093      0.20305887      0.58992143
  C      6.76309540      1.44576502      4.46688091
  H      4.98998991     -0.16049126      2.96221153
  H      6.87056561      3.56544376      2.72489523
  H      5.52942863      3.06795826      0.35024598
  H      4.47910718      1.10492675     -0.62125447
  H      4.97324440     -0.42091295      0.15538768
  H      2.49776355     -0.30111351     -0.26401237
  H      2.38092467      1.11761524      0.77733210
  H      2.85397152     -0.45265230      1.45208901
  H      7.14295872      2.40730898      4.81137626
  H      7.58746779      0.74196599      4.33398541
  H      6.06546017      1.03887838      5.19894286
  N      2.55719033      2.71090465      4.31244630
  C      2.85804508      3.62685286      3.39175036
  N      3.92415052      4.31225270      3.80108485
  C      4.31834520      3.82248257      5.00932439
  C      3.46212214      2.81680764      5.33113521
  C      1.44712426      1.79429716      4.20790415
  C      1.88906822      0.35105489      4.40457236
  C      4.54771916      5.41080155      3.12155519
  H      2.29718492      3.71754367      2.46232860
  H      5.21517169      4.18716606      5.47903059
  H      3.42970890      2.19245656      6.19935151
  H      0.69430013      2.06185151      4.95657286
  H      1.02207443      1.94067733      3.20650143
  H      1.04626739     -0.30970142      4.22429416
  H      2.25471604      0.17627544      5.41475857
  H      2.67674238      0.10462502      3.69864514
  H      4.59052908      5.20891921      2.05386123
  H      5.55591623      5.52921526      3.52747525
  H      3.97851704      6.32715944      3.28535001
  N      7.24495581      7.17757369      7.17453567
  C      6.02328429      6.71301689      7.43301090
  N      5.19211355      7.11287285      6.46637680
  C      5.88910940      7.94009311      5.62903515
  C      7.16971903      7.97207236      6.06687354
  C      8.39965107      6.97166882      8.00944971
  C      8.76842663      5.49378414      8.08847671
  C      3.76933037      6.95202461      6.53050715
  H      5.79287732      5.96571648      8.16168506
  H      5.43076774      8.41788895      4.78839774
  H      8.02704058      8.47237511      5.66748769
  H      9.22374717      7.54397113      7.57813263
  H      8.16714717      7.37000391      9.00335129
  H      9.75899799      5.37645495      8.51920140
  H      8.76107671      5.06267545      7.09041982
  H      8.05450679      4.94986826      8.70087456
  H      3.50197158      5.89424337      6.51652975
  H      3.30228310      7.46056550      5.69030422
  H      3.42679784      7.39771121      7.46922056
 Cl     30.11943439    -14.39829182     33.34587849
 Cl      7.31538702      4.94013806      4.91215071
 Cl      7.11641368     -0.88022691      1.84031871
 Cl      5.25876111      8.24129475      9.24834753
 Cl      0.85267259      3.00841198      1.13013336

