#B3LYP/6-31+G(d) OPT FREQ

62, Energy =    -96.26806184 au

0 1
  N      3.60877060      9.08260044      6.82697979
  C      4.16130781      7.99134805      7.33596060
  N      3.22465582      7.27578440      7.94524354
  C      2.02937906      7.90309113      7.78805318
  C      2.27055010      9.04240512      7.08682513
  C      4.31433871     10.06156858      6.03996741
  C      4.08569932      9.80373288      4.55438726
  C      3.39681357      5.98445889      8.54261504
  H      5.22328914      7.81004689      7.31504216
  H      1.12394508      7.46820419      8.17183963
  H      1.60167639      9.80913488      6.75379265
  H      3.96420087     11.05907278      6.32331358
  H      5.37539229      9.96179756      6.29908770
  H      4.79000223     10.37923594      3.95991413
  H      3.07023168     10.07051777      4.26244118
  H      4.23096241      8.74616789      4.34846216
  H      3.63386595      5.26715299      7.75517578
  H      2.46020193      5.70063160      9.02290286
  H      4.20843473      6.00763789      9.26960216
  N      6.85535931      4.19040609      5.33962178
  C      7.62028565      3.13288307      5.08205651
  N      6.87033225      2.18297445      4.53664143
  C      5.59042244      2.63925284      4.43364782
  C      5.58077163      3.90188415      4.93973743
  C      7.27555987      5.41949752      5.97745524
  C      6.93641071      6.64632795      5.14407095
  C      7.34946441      0.89339249      4.12955881
  H      8.67898378      2.99983884      5.27689679
  H      4.78999358      2.02456948      4.05512137
  H      4.78017566      4.61555023      5.01512452
  H      6.77122698      5.49685646      6.94558079
  H      8.35113901      5.35073477      6.15133093
  H      7.19740565      7.53855758      5.70954568
  H      5.87110471      6.67742920      4.93223968
  H      7.48667653      6.64207603      4.20600879
  H      8.39350960      0.80442278      4.44255951
  H      7.27815536      0.79377316      3.04553706
  H      6.74100749      0.11564058      4.58840841
  N      0.40467329      4.97377902      5.35094493
  C      1.08660420      4.37011835      6.31577297
  N      1.83058341      3.40895358      5.78442746
  C      1.64366765      3.41159411      4.43808239
  C      0.74481649      4.39420636      4.16479997
  C     -0.49926629      6.07800660      5.55902589
  C     -0.01394134      7.32306945      4.82603723
  C      2.69650500      2.50020949      6.47955230
  H      0.98509668      4.63261795      7.35849983
  H      2.14535519      2.69325393      3.81444977
  H      0.34697009      4.72718309      3.22916642
  H     -1.49764130      5.78693706      5.21206000
  H     -0.53581892      6.25109986      6.63832990
  H     -0.52178942      8.20432658      5.20735110
  H     -0.19421214      7.24624284      3.75545153
  H      1.05592871      7.43098989      4.98626460
  H      2.88105588      1.64383798      5.82304353
  H      2.22869189      2.18054542      7.40929322
  H      3.64980395      2.98035202      6.70138079
 Cl      7.07023303      9.20914357      7.67507201
 Cl     -0.14083499      5.68356094      9.03202170
 Cl      3.27825720      6.31831080      5.06248857
 Cl      3.08253217      0.48699755      3.81855409
 Cl     10.43647524      1.67145092      5.24689361

