62
Energy =    -96.27582442 au
  N      7.21924078     11.18310575      6.06959495
  C      6.13555308     11.74452378      6.59455002
  N      5.82616025     11.11666414      7.72496889
  C      6.75201931     10.13653795      7.93307976
  C      7.62984149     10.17989135      6.89418261
  C      7.87562084     11.55389501      4.83985298
  C      8.81173041     12.73860985      5.05900971
  C      4.66837205     11.37547630      8.53139723
  H      5.53174807     12.50741530      6.14712771
  H      6.67720695      9.46204905      8.76304938
  H      8.46726384      9.56122808      6.61658358
  H      8.45093876     10.67297943      4.51611822
  H      7.11086399     11.79792692      4.09736737
  H      9.30662006     12.99044948      4.12512764
  H      9.57384287     12.47736414      5.79072675
  H      8.26539732     13.61330213      5.41300796
  H      3.83851707     11.60543465      7.86264036
  H      4.84075793     12.21001982      9.20980210
  H      4.43929905     10.47999849      9.10725009
  N      2.45366145      5.42640865      9.63027612
  C      2.76069174      5.72879350      8.37467860
  N      3.23726916      4.64498736      7.76649089
  C      3.14754635      3.59795001      8.63664981
  C      2.65944791      4.08807101      9.80502471
  C      1.91338385      6.34951341     10.59438290
  C      0.39233461      6.37891259     10.51730021
  C      3.56998700      4.59606780      6.37386007
  H      2.79726319      6.72299422      7.98206141
  H      3.42995240      2.60224311      8.36551744
  H      2.45634398      3.59740343     10.73492023
  H      2.25461301      6.04588381     11.58678061
  H      2.33582381      7.33017637     10.36236741
  H      0.00551999      7.23052112     11.06887973
  H     -0.03398777      5.46601474     10.92709185
  H      0.08845022      6.45793060      9.47673367
  H      3.91896893      3.59952199      6.11092015
  H      4.34531793      5.32924112      6.15137335
  H      2.66947744      4.84133056      5.80243133
  N      4.01809023      8.28095201      5.06384954
  C      3.55783279      8.77097631      6.21172400
  N      2.25383156      8.54032034      6.29588304
  C      1.85154603      7.93238948      5.14516863
  C      2.95790816      7.76809099      4.37447248
  C      5.38747907      8.39036923      4.61990517
  C      6.30852696      7.44993835      5.38245456
  C      1.40357778      8.91922182      7.38474783
  H      4.15496713      9.16059611      7.01055611
  H      0.83646451      7.63514845      4.98854519
  H      3.06738391      7.33914315      3.39962896
  H      5.42100511      8.17581808      3.55105472
  H      5.69399037      9.42677295      4.77170193
  H      7.34466265      7.69754610      5.14909440
  H      6.12693825      6.41527243      5.09801053
  H      6.16207829      7.55759053      6.45340296
  H      2.01160836      9.03580844      8.28112254
  H      0.65848692      8.13565940      7.52676213
  H      0.90960273      9.86648452      7.16167418
 Cl      0.49103640      5.65224425      7.07113508
 Cl      9.48180385      8.69076409      4.68939216
 Cl     52.95830605    -15.69034239    -27.57685540
 Cl      4.41051007      8.11859816      9.30930421
 Cl      3.50603420     11.31661684      5.36064131
