#B3LYP/6-31+G(d) OPT FREQ

62, Energy =    -96.25233508 au

0 1
  N      8.53161733      2.11098620      2.56123279
  C      9.26465611      2.79315340      3.43686485
  N      9.46255952      4.02318630      2.97519724
  C      8.88906537      4.11169335      1.74167685
  C      8.30247366      2.91700926      1.48171895
  C      8.05130170      0.76918280      2.75406447
  C      6.66879255      0.78515438      3.40236729
  C     10.22242417      5.02154341      3.66317725
  H      9.53227559      2.45660476      4.41572120
  H      8.93737529      5.00504908      1.15313886
  H      7.75813132      2.58065658      0.62366808
  H      8.02768917      0.26452438      1.78410112
  H      8.77301796      0.25866997      3.39513861
  H      6.41213507     -0.20268640      3.77392792
  H      5.91029126      1.09778807      2.68854950
  H      6.66832858      1.49179751      4.23000027
  H      9.73525738      5.24541055      4.61417382
  H     10.27946702      5.92311339      3.05669605
  H     11.22464987      4.62847668      3.84758118
  N      3.51928834      3.85744062      4.00987512
  C      4.52363508      3.85340244      3.14122733
  N      4.02911133      3.72702889      1.91356233
  C      2.67104142      3.65273881      2.00174279
  C      2.34825450      3.73357267      3.32314737
  C      3.66918550      3.99307646      5.43759983
  C      2.92544797      5.22106952      5.94784773
  C      4.77729429      3.64349645      0.69181156
  H      5.56156803      3.92608140      3.42817007
  H      2.07662885      3.57747112      1.10913519
  H      1.40286923      3.69824829      3.83504375
  H      3.25379336      3.10112164      5.91301955
  H      4.74149829      4.05455772      5.64170954
  H      3.19376720      5.40569841      6.98453508
  H      1.85276058      5.04867539      5.88664030
  H      3.18805404      6.09730421      5.35924461
  H      5.57161040      4.38765405      0.68498878
  H      4.08157918      3.80425911     -0.14744342
  H      5.21708706      2.65016090      0.59114182
  N      3.76561440      2.80997075      9.09653405
  C      2.90878480      3.77296942      9.44127966
  N      1.75877543      3.57777015      8.80430884
  C      1.85028693      2.42017819      8.09183811
  C      3.10499993      1.93681229      8.27405532
  C      5.10316438      2.63668073      9.60213146
  C      5.11362049      1.60644716     10.72720568
  C      0.57919462      4.38671233      8.88027765
  H      3.15605685      4.63215606     10.02863473
  H      1.04424786      2.10038703      7.46012605
  H      3.58116473      1.06241577      7.88130963
  H      5.75085732      2.33406838      8.77339632
  H      5.44445614      3.60142872      9.98258523
  H      6.09007035      1.57537707     11.20266804
  H      4.87227885      0.61745875     10.34494637
  H      4.36001245      1.89034659     11.46038389
  H     -0.04555173      4.05034088      9.70922790
  H      0.04362637      4.28063330      7.93174967
  H      0.85310030      5.42713475      9.04374438
 Cl      2.25887207      3.12138264     11.88785942
 Cl      2.34325809      3.87523528     -1.40902914
 Cl     -0.11298941      3.53614294      5.73323343
 Cl      7.14453439      3.85940313      5.08163704
 Cl     11.60351250      1.88121372      2.87997632

