#B3LYP/6-31+G(d) OPT FREQ

62, Energy =    -96.27196902 au

0 1
  N      7.44286667      6.96122962      6.29132406
  C      6.79965791      6.47822944      5.23319105
  N      7.64104308      6.39575491      4.21294238
  C      8.87445143      6.77968761      4.63950109
  C      8.75206005      7.13574747      5.94499942
  C      6.85867729      7.17552248      7.59037720
  C      7.10252759      5.96903062      8.49117576
  C      7.34283529      5.92645137      2.89286499
  H      5.74468328      6.29484753      5.20410213
  H      9.70384105      6.81708995      3.96180540
  H      9.47810749      7.49741170      6.64359737
  H      7.29682872      8.08064433      8.02164327
  H      5.78889455      7.33285302      7.43604530
  H      6.46864329      6.02070393      9.37156485
  H      8.14318674      5.92682473      8.80561209
  H      6.87546532      5.06174945      7.93490629
  H      7.46444692      4.84271673      2.85327103
  H      8.03327279      6.40961824      2.19695771
  H      6.31491557      6.17639651      2.63831009
  N      2.01243732      4.78437866      3.56664319
  C      2.72545749      5.32950210      4.55016098
  N      3.06101341      4.38479219      5.41835281
  C      2.55635036      3.20085749      4.97014878
  C      1.89811731      3.45185280      3.80451038
  C      1.47784748      5.45558885      2.40771011
  C      2.58472026      5.74267842      1.39935733
  C      3.83989429      4.58811010      6.60448926
  H      2.98631909      6.36997464      4.66352487
  H      2.71215625      2.28384717      5.49885393
  H      1.30413050      2.83520415      3.14830952
  H      0.72241288      4.78415818      1.97649153
  H      1.00875916      6.38901947      2.72853760
  H      2.16246699      6.22447717      0.52235983
  H      3.05640143      4.81385871      1.08865159
  H      3.34098283      6.39719885      1.82978322
  H      3.86582236      5.65328642      6.82609045
  H      4.86968839      4.23271087      6.43987680
  H      3.40102784      4.04201522      7.43769932
  N      8.88870684     10.55057391      4.66887090
  C      8.19817325     10.96367654      5.72436487
  N      6.97473409     10.44864725      5.66283407
  C      6.88733854      9.68399938      4.53530488
  C      8.09433033      9.74419719      3.90848744
  C     10.25834639     10.92111406      4.40416576
  C     11.15557258      9.69422304      4.31858485
  C      5.91010430     10.68151405      6.59714486
  H      8.60912821     11.63428253      6.48326657
  H      5.98752122      9.15527397      4.29380589
  H      8.45707452      9.25726541      3.01553843
  H     10.29241394     11.46262064      3.45460421
  H     10.56454502     11.58910356      5.21456260
  H     12.18211064     10.00928559      4.15410020
  H     10.84772909      9.05879622      3.49003239
  H     11.10953424      9.12441756      5.24299536
  H      5.39306276     11.61224461      6.35653438
  H      6.31381449     10.75841767      7.60468102
  H      5.19732332      9.85622862      6.53511405
 Cl     -0.48762579      2.86400822      1.71054532
 Cl      3.94967110      8.05447286      5.83834378
 Cl      9.92912152     12.89570773      7.46015738
 Cl      6.90351610      3.76829604      5.81422707
 Cl      9.69771459      7.98210638      1.61698759

