62
Energy =    -96.28846595 au
  N      2.85175290      2.89713118      7.80137943
  C      2.80409181      3.65744905      8.88676797
  N      2.22769655      2.97313344      9.86612821
  C      1.86134826      1.75271528      9.37664496
  C      2.26197510      1.70290850      8.07892204
  C      3.41335459      3.26702534      6.52582517
  C      4.87005075      3.69206882      6.66511860
  C      1.89720253      3.52226249     11.14781278
  H      3.23781538      4.64273176      8.99995898
  H      1.34892113      1.02933671      9.97641144
  H      2.18877308      0.93869058      7.32563260
  H      3.31732263      2.39392633      5.87091747
  H      2.81213662      4.08897012      6.12594115
  H      5.25812570      3.99184184      5.69506476
  H      5.46913409      2.86125218      7.03005056
  H      4.97205262      4.52582314      7.35667947
  H      2.64903502      4.26021638     11.42211223
  H      1.85019629      2.73267238     11.89569842
  H      0.92719495      4.02039167     11.07176507
  N      1.08196985      7.79334326      8.66880442
  C      2.07226097      7.31352223      7.92611952
  N      1.78879382      7.52323378      6.64609172
  C      0.58061888      8.14077284      6.56216159
  C      0.13374136      8.30408594      7.83612787
  C      0.98122603      7.67056185     10.10167725
  C      2.22176015      8.20252811     10.80370472
  C      2.61238409      7.20325450      5.51540086
  H      2.97548731      6.85360486      8.31579112
  H      0.14330242      8.36166549      5.60628679
  H     -0.77962900      8.72584851      8.20155140
  H      0.08680215      8.21426831     10.41766220
  H      0.84127267      6.60699719     10.31925213
  H      2.09980788      8.10878683     11.87943958
  H      2.38167277      9.25141889     10.56075998
  H      3.10021313      7.63515133     10.50456926
  H      3.38210535      7.96571333      5.38381143
  H      1.97525185      7.17974732      4.62688396
  H      3.09978524      6.24376589      5.66997984
  N      0.69136787      3.40769979      4.24727623
  C      0.03593146      4.55990725      4.36577689
  N     -0.75153261      4.49678129      5.43157937
  C     -0.59939960      3.27540569      6.01222604
  C      0.30644521      2.58833017      5.26595621
  C      1.62179785      3.03002457      3.20792184
  C      2.60832532      4.14343473      2.88615430
  C     -1.58736119      5.56183502      5.90180232
  H      0.12568958      5.45039982      3.75542704
  H     -1.10537591      3.01047165      6.91622333
  H      0.74592577      1.61205994      5.37602914
  H      2.13972316      2.13174866      3.56283280
  H      1.05258463      2.77162629      2.30859607
  H      3.26252295      3.81887971      2.08199399
  H      3.22094447      4.37261106      3.75287771
  H      2.09480328      5.04810063      2.57154756
  H     -1.32311076      5.77183268      6.94052467
  H     -2.63708396      5.26963249      5.85099585
  H     -1.41245167      6.43738019      5.27945914
 Cl      0.04164600      7.56698226      3.32151896
 Cl      2.57416219      0.28940728      5.05613282
 Cl     35.32134069     -1.88920811    -37.28594277
 Cl      4.73900356      6.20246452      9.36932291
 Cl      0.15838747      4.85576742      8.63589340
