#B3LYP/6-31+G(d) OPT FREQ

62, Energy =    -96.27002437 au

0 1
  N      8.29907249      2.88444601      3.22510988
  C      9.41093809      2.24098230      2.86837482
  N      9.48574435      2.22185328      1.54056072
  C      8.39009207      2.86530988      1.03859019
  C      7.64940334      3.28337479      2.09783571
  C      7.84632094      3.12254026      4.57457690
  C      8.78920800      4.06979531      5.30967654
  C     10.54981698      1.60268869      0.80485800
  H     10.19885336      1.81296084      3.48776672
  H      8.22171425      2.97399139     -0.01282861
  H      6.70826836      3.80049405      2.15904824
  H      6.83990808      3.54551294      4.50633923
  H      7.80187227      2.16454158      5.10051661
  H      8.43839811      4.21578641      6.32744188
  H      8.82066352      5.03706051      4.81367136
  H      9.79370667      3.65523230      5.34156022
  H     11.29944028      1.27017008      1.53521817
  H     10.99678682      2.31572961      0.11205403
  H     10.17657661      0.74438419      0.24484572
  N      2.36626044      6.95006210      4.51471644
  C      3.60801850      6.81550129      4.96247892
  N      3.98330377      7.94773499      5.54716685
  C      2.94582135      8.82830285      5.47251753
  C      1.92368771      8.19501280      4.83054753
  C      1.59362572      5.93938133      3.83802863
  C      0.79132140      5.11326714      4.83822507
  C      5.26207455      8.23458510      6.12830650
  H      4.22552950      5.94955164      4.78270476
  H      3.03066395      9.82371707      5.85431501
  H      0.96474408      8.53861388      4.49086185
  H      0.92243680      6.45876080      3.14690373
  H      2.28641203      5.29833443      3.28999320
  H      0.19915631      4.38076246      4.29956208
  H      0.11930312      5.75205505      5.40690359
  H      1.45332838      4.58866625      5.52265799
  H      5.15873674      8.42352621      7.19654347
  H      5.66258972      9.13960961      5.64622848
  H      5.92855954      7.39224001      5.96696994
  N      5.37382860      7.82913188      1.71715938
  C      4.97188123      9.03449772      2.12115785
  N      3.65096375      9.09906076      2.02161246
  C      3.18921522      7.91294769      1.54149679
  C      4.27273506      7.11058652      1.35388897
  C      6.74929189      7.38971073      1.70230530
  C      7.20400588      6.98992799      3.09943476
  C      2.84794571     10.24344741      2.33895283
  H      5.57521009      9.79678267      2.59945366
  H      2.13254928      7.75533522      1.41144463
  H      4.34159251      6.09371929      1.02977761
  H      6.83114420      6.54326887      1.01734970
  H      7.36234541      8.21564874      1.33010161
  H      8.24682190      6.68212797      3.06798899
  H      6.59273019      6.16337440      3.45446765
  H      7.10566175      7.83669722      3.77265708
  H      2.84240566     10.93706966      1.49830486
  H      3.27445308     10.74551254      3.20487926
  H      1.82527866      9.90757714      2.52747292
 Cl      4.86009661      4.40899583      3.33173835
 Cl      5.78797410     10.94344258      4.41056425
 Cl      0.01204829      8.42828205      2.25677198
 Cl    -20.18210506    -15.87705951     29.83310386
 Cl     12.13198727      1.00915258      3.62574628

