#B3LYP/6-31+G(d) OPT FREQ

62, Energy =    -96.20934111 au

0 1
  N      3.44076298      2.53332375      6.80965791
  C      3.61501648      1.80259577      5.71505508
  N      2.85784979      0.71519614      5.78458470
  C      2.19310800      0.73696804      6.97414387
  C      2.55317184      1.87671299      7.61643880
  C      4.00842429      3.82877991      7.07006616
  C      2.95274329      4.90748108      6.85085424
  C      2.80524977     -0.28870973      4.76492413
  H      4.23621032      2.06370372      4.88404440
  H      1.52161793     -0.04435250      7.26740829
  H      2.24756784      2.27555458      8.56191746
  H      4.38851275      3.84648505      8.09508157
  H      4.84419900      3.96465512      6.38297232
  H      3.40429303      5.89483931      6.86708361
  H      2.18873336      4.85579055      7.62151916
  H      2.47746604      4.74454874      5.88505327
  H      2.54407918      0.18761770      3.81899983
  H      2.05648646     -1.03424696      5.01615064
  H      3.78581944     -0.75812974      4.67350284
  N      5.91123523      0.77111858     10.21924473
  C      6.20015836      1.06102023     11.50944810
  N      6.59922168      2.35664980     11.57857073
  C      6.55097239      2.86992263     10.30766627
  C      6.12542482      1.88816723      9.47293831
  C      5.40129815     -0.47613524      9.71565559
  C      3.91664695     -0.62759739     10.03538361
  C      6.97570527      3.06144246     12.77038399
  H      6.10832942      0.39718144     12.34009347
  H      6.83044703      3.88231415     10.10218587
  H      6.00273141      1.85069017      8.40369100
  H      5.54898113     -0.46836794      8.62886761
  H      5.97045269     -1.29793188     10.15743706
  H      3.56058428     -1.58628329      9.66854639
  H      3.35224301      0.15771585      9.54117320
  H      3.73940587     -0.57545285     11.10729847
  H      6.11375541      3.55824415     13.22337296
  H      7.72463616      3.81514810     12.53024804
  H      7.39193033      2.36800808     13.49805379
  N      2.90734456      5.83151787      1.81460817
  C      1.96504273      4.97845508      1.42793650
  N      1.37370281      5.44960459      0.33769985
  C      1.94693411      6.63994930      0.01036654
  C      2.91158453      6.88189869      0.93863987
  C      3.74757955      5.65127708      2.97977065
  C      5.18221053      5.33995042      2.57733456
  C      0.29087019      4.84549207     -0.38430829
  H      1.72805352      4.07517609      1.96850027
  H      1.57631429      7.18635663     -0.85191893
  H      3.58260189      7.71069251      1.04088207
  H      3.70840591      6.56695300      3.57512704
  H      3.31551007      4.82129496      3.55024090
  H      5.79771657      5.23381214      3.46633967
  H      5.59750555      6.13345664      1.95864279
  H      5.22204159      4.40831212      2.02019128
  H     -0.01125467      5.55404546     -1.16904016
  H     -0.53821006      4.64969888      0.29197064
  H      0.61178063      3.90757110     -0.83663511
 Cl      1.85859882      3.06813754      4.02071285
 Cl     23.78749211    -18.52703262    -18.07194713
 Cl      0.11866582      7.36198673     -2.44192195
 Cl      7.06904396      3.99655692     18.84109894
 Cl      5.82193827      0.54564525      6.53680399

