#B3LYP/6-31+G(d) OPT FREQ

62, Energy =    -96.28357364 au

0 1
  N      3.38950869      4.57997021      7.92669262
  C      4.05224614      5.42532901      7.14116399
  N      4.82861763      6.20047168      7.89620780
  C      4.66046396      5.83898254      9.19729107
  C      3.75782080      4.81938558      9.21480888
  C      2.49421515      3.54452953      7.46931366
  C      3.16048179      2.17731139      7.55369609
  C      5.71152058      7.23055130      7.43267275
  H      3.89597605      5.54678726      6.07756143
  H      5.15078207      6.37315364      9.98584021
  H      3.34208870      4.26409483     10.02947405
  H      1.58163783      3.58048308      8.07570227
  H      2.25338515      3.78714687      6.43596314
  H      2.53833498      1.42103751      7.07798869
  H      3.32226719      1.88834560      8.58890200
  H      4.11986055      2.19192536      7.03892851
  H      6.74129892      6.86939651      7.42826729
  H      5.63944732      8.07858212      8.12442121
  H      5.42827996      7.51812913      6.42381196
  N      1.53607385      7.33351580      8.97184204
  C      2.40297935      8.24160992      8.53225939
  N      2.23483726      8.38609821      7.22212665
  C      1.22975455      7.55907169      6.81925267
  C      0.78874173      6.89684102      7.92112508
  C      1.35854092      6.91827539     10.34056999
  C      0.45764068      7.89952320     11.08341720
  C      2.99603105      9.23565889      6.35330873
  H      3.19352493      8.70336414      9.12445109
  H      0.95427255      7.47858831      5.78999640
  H      0.06421381      6.11425442      8.05519890
  H      0.89979776      5.92494009     10.31860612
  H      2.33926688      6.87730273     10.81749442
  H      0.32725994      7.56813726     12.10927607
  H     -0.51961843      7.94722703     10.60873738
  H      0.90251373      8.89244044     11.08944419
  H      2.38771930     10.07657767      6.01600140
  H      3.29613191      8.64860630      5.48123592
  H      3.86632338      9.60794110      6.88779298
  N      0.86348882      3.46327576      4.27204481
  C      0.55044502      2.35469817      4.93887410
  N     -0.30963361      2.66185013      5.90009522
  C     -0.57148471      3.99573193      5.84129638
  C      0.16591957      4.50104413      4.81476014
  C      1.79283928      3.56260470      3.17468601
  C      1.06519397      3.50602365      1.83605042
  C     -0.80454740      1.73903874      6.87970118
  H      0.98797525      1.35743317      4.84087286
  H     -1.20854179      4.47510856      6.55488764
  H      0.28900631      5.50152249      4.45742117
  H      2.33083532      4.51065079      3.28021618
  H      2.49741371      2.73334115      3.25698219
  H      1.78345564      3.59827837      1.02663624
  H      0.34936367      4.32129602      1.75682097
  H      0.53702967      2.56042759      1.73032006
  H     -1.84716241      1.48958526      6.68001286
  H     -0.73177596      2.20440503      7.86410061
  H     -0.19422690      0.83638599      6.83387860
 Cl      3.02003191      6.54170832      4.31590015
 Cl      1.62457668     -0.42948257      5.62845464
 Cl     32.93689565     -1.12369848    -33.99352628
 Cl      5.02068322      9.11706209     10.03119315
 Cl     -0.36981070      4.18484245      9.22380785

