#B3LYP/6-31+G(d) OPT FREQ

62, Energy =    -96.27647674 au

0 1
  N      4.67665481      6.41909999      8.22529427
  C      4.37976526      7.57031784      8.82269982
  N      4.16427690      7.33517312     10.11163640
  C      4.32890861      6.00372727     10.34534638
  C      4.65589473      5.42706891      9.15668797
  C      4.99682787      6.24935023      6.82853078
  C      6.24513269      7.04598936      6.47152430
  C      3.80480252      8.30536544     11.10444910
  H      4.40229129      8.54854123      8.34905191
  H      4.26351268      5.60330027     11.33592978
  H      4.83569145      4.40672136      8.87262048
  H      5.12953463      5.17743002      6.65562170
  H      4.15429965      6.60492347      6.22930716
  H      6.49694992      6.88505280      5.42696144
  H      7.08390023      6.73557814      7.09210716
  H      6.06252389      8.10788716      6.62665141
  H      4.36457087      8.07748712     12.01768629
  H      2.73712419      8.24624677     11.32009358
  H      4.04868318      9.29972243     10.74035820
  N      8.09338308      2.93998567      9.07847139
  C      7.99001610      3.41208861      7.83494324
  N      9.11417132      4.05355344      7.52323293
  C      9.96384541      3.98091263      8.58540792
  C      9.32453201      3.28411825      9.56254612
  C      7.06044740      2.20182086      9.76368746
  C      7.48805282      0.76056402     10.01473287
  C      9.40528754      4.72904623      6.29079957
  H      7.08770379      3.29609695      7.24252431
  H     10.90340286      4.50012586      8.57046064
  H      9.64193556      3.02738060     10.55188250
  H      6.83585431      2.70426123     10.70826026
  H      6.17692808      2.22671399      9.11757624
  H      6.69323606      0.23341688     10.53466059
  H      8.39002445      0.71694311     10.62290742
  H      7.67614369      0.25644559      9.06974680
  H      9.94324405      4.06563935      5.61162059
  H     10.04380139      5.58890625      6.52572564
  H      8.48088134      5.04943338      5.81877337
  N      8.12439216      9.23142397      8.71685781
  C      8.59771941      8.02109237      8.99139218
  N      8.01474816      7.58062818     10.10541159
  C      7.15041202      8.53032606     10.55208093
  C      7.21825976      9.56910293      9.67761950
  C      8.43550108     10.07945457      7.58955449
  C      9.24248580      9.36933118      6.51773541
  C      8.20121852      6.30186348     10.72577324
  H      9.39909007      7.50431395      8.47453010
  H      6.59110268      8.36869851     11.45467748
  H      6.66538938     10.48290247      9.62807457
  H      7.47071764     10.41850298      7.19160929
  H      8.98241151     10.95277901      7.96077612
  H      9.48450559     10.07656409      5.72954272
  H      8.66737341      8.55625839      6.08410329
  H     10.16901814      8.96375847      6.91469922
  H      7.66422683      6.30671993     11.67895292
  H      9.26152743      6.10459863     10.87447065
  H      7.77684447      5.52059919     10.09433441
 Cl      5.01672878      2.78524686      7.11242739
 Cl     11.37147712      6.78581058      7.92005852
 Cl      5.91478512      6.78369381     13.12523050
 Cl      9.89864550     11.46565605    -28.97970139
 Cl      5.09258760     10.34685316      7.45382269

