62
Energy =    -96.25708060 au
  N      6.61915722      2.81538042      6.39429318
  C      5.69460373      3.64798524      6.86233405
  N      6.25636746      4.83154692      7.09516826
  C      7.57747059      4.74380185      6.76265696
  C      7.80791773      3.47810380      6.32303390
  C      6.44216084      1.43446809      6.00611460
  C      6.87576242      1.21944951      4.56161639
  C      5.58931022      5.99139546      7.61464206
  H      4.64808205      3.45115293      7.02521333
  H      8.24921837      5.57130008      6.85860691
  H      8.71860439      3.02572458      5.92701941
  H      7.06275244      0.81495492      6.65923377
  H      5.39553955      1.15616549      6.14881559
  H      6.68225203      0.18681917      4.28767059
  H      7.93910144      1.42246554      4.44650444
  H      6.31219750      1.86575005      3.89305434
  H      5.79916768      6.85516788      6.98461525
  H      5.92869835      6.19971037      8.63013892
  H      4.51254034      5.79294386      7.62497517
  N      1.68488539      0.79039327      9.02346289
  C      2.26694031     -0.40252318      8.99512213
  N      2.25332141     -0.92172708     10.21941957
  C      1.64383011     -0.03977635     11.05630649
  C      1.28430183      1.03644534     10.30330009
  C      1.46697198      1.62364913      7.86772172
  C     -0.00758197      1.63514391      7.47983606
  C      2.77955677     -2.19301543     10.63168567
  H      2.69995144     -0.82729182      8.10277176
  H      1.50952522     -0.29441582     12.09797618
  H      0.79688474      1.94848123     10.57883606
  H      1.80728394      2.64194280      8.07523817
  H      2.07069466      1.20456445      7.06013496
  H     -0.16058941      2.33523082      6.66363693
  H     -0.62516509      1.95207260      8.31773168
  H     -0.33000379      0.64490777      7.16313998
  H      2.48439979     -2.34891090     11.67793875
  H      3.86693322     -2.19692924     10.55215000
  H      2.37593172     -2.98812523     10.00541729
  N      1.55966795      2.28939352      4.23730604
  C      1.19874291      1.01141344      4.22077282
  N     -0.02729452      0.91412484      3.71553685
  C     -0.46562025      2.16132623      3.39722392
  C      0.53305821      3.02648180      3.72534578
  C      2.83548507      2.78508518      4.69137151
  C      3.62248494      3.40290706      3.54239140
  C     -0.80018113     -0.28144085      3.53129175
  H      1.81489017      0.21296981      4.60870653
  H     -1.42760130      2.28809611      2.92308150
  H      0.57988345      4.09262951      3.65154810
  H      2.67009989      3.52748075      5.48153013
  H      3.37443688      1.93186398      5.10698372
  H      4.56535737      3.78976331      3.91785239
  H      3.07167940      4.22613898      3.09265993
  H      3.82899429      2.65996580      2.77450086
  H     -1.63804211     -0.03395056      2.86535222
  H     -1.19230924     -0.62858394      4.48800792
  H     -0.18309334     -1.06521247      3.09578081
 Cl     -3.06079242      1.26002764      1.71395829
 Cl      2.57856074      4.76671265      7.41612349
 Cl      3.46669439     -0.46721435      5.97156798
 Cl     10.33269400      2.24865044      4.86910878
 Cl      1.58521319     -1.90429368     13.68610351
