#B3LYP/6-31+G(d) OPT FREQ

62, Energy =    -96.26819536 au

0 1
  N      0.72412211      5.91566993      8.08512286
  C      1.23057756      7.14040501      8.00853613
  N      2.47404554      7.05696544      7.54472220
  C      2.76437147      5.74383377      7.31969734
  C      1.66248259      5.02332019      7.65781824
  C     -0.61303195      5.60779925      8.52995738
  C     -1.38797409      4.89203385      7.43156601
  C      3.38580828      8.14128233      7.31061727
  H      0.67197500      8.02698323      8.30107190
  H      3.72112793      5.45305462      6.93006612
  H      1.47416093      3.96655311      7.59053853
  H     -0.54818401      4.96696150      9.41419920
  H     -1.08476424      6.55835522      8.80154686
  H     -2.39003272      4.65917693      7.78086921
  H     -0.88861279      3.96646692      7.15595799
  H     -1.46544426      5.53119275      6.55511839
  H      2.91643658      8.90046361      6.68510929
  H      4.26914756      7.73714522      6.80967128
  H      3.68177408      8.60008027      8.25526465
  N      0.89968848      3.38375913      3.62040995
  C      2.11423092      2.84625893      3.53190336
  N      3.02017564      3.74667555      3.90505469
  C      2.37057882      4.91702054      4.16872032
  C      1.04508709      4.69081253      3.99513485
  C     -0.32330170      2.74214685      3.21422152
  C     -1.32448738      2.66133650      4.35892123
  C      4.44289048      3.58562706      3.82604451
  H      2.31500743      1.81260377      3.34428489
  H      2.90867693      5.79524577      4.45989938
  H      0.20743015      5.34700130      4.10729631
  H     -0.73619884      3.29483291      2.36280060
  H     -0.05666880      1.74225815      2.86755253
  H     -2.15687289      2.01948671      4.08222278
  H     -1.71152403      3.64501584      4.61335172
  H     -0.83352866      2.24460310      5.23529482
  H      4.74034878      2.65046196      4.29914773
  H      4.92664456      4.42326104      4.32938931
  H      4.73546553      3.56180025      2.77361424
  N      6.38999511      2.43409419      7.86256091
  C      5.86877212      1.29511806      8.31384190
  N      4.59894417      1.23331551      7.92613706
  C      4.30270346      2.35582093      7.21271377
  C      5.43117391      3.11350036      7.17279238
  C      7.75233940      2.86864335      8.05331343
  C      8.73394350      1.82980044      7.52534927
  C      3.67239330      0.16907771      8.19180296
  H      6.41953317      0.54239618      8.88380534
  H      3.31892696      2.51711278      6.81384515
  H      5.61728319      4.07322397      6.72067995
  H      7.86126417      3.82333420      7.53316070
  H      7.92771924      3.01984211      9.12246372
  H      9.75000896      2.20140618      7.62427510
  H      8.53788401      1.61976107      6.47633586
  H      8.64028144      0.90909526      8.09981148
  H      3.96751784     -0.73177062      7.65255438
  H      2.68254995      0.48778937      7.85917590
  H      3.65486964     -0.05594453      9.25707973
 Cl      1.02050098      1.86447409      6.78964314
 Cl     -1.05464867      9.00065056      9.09704091
 Cl      5.75398230      6.15106113      5.84360560
 Cl      2.34623382      2.89778420      0.97210667
 Cl      7.80812764     -0.72141054      9.77622095

