#B3LYP/6-31+G(d) OPT FREQ

62, Energy =    -96.29417658 au

0 1
  N      5.51000795      7.56564925      8.68473368
  C      5.84909773      7.37958409      7.41297581
  N      5.29278804      8.33064475      6.67224461
  C      4.58868004      9.15510245      7.49362916
  C      4.72683008      8.67599733      8.76097116
  C      5.88948797      6.73847338      9.80030957
  C      7.06870036      7.34516003     10.55271120
  C      5.35952535      8.41445715      5.24251101
  H      6.37793215      6.53302836      7.00810604
  H      4.02128206      9.97517874      7.10216403
  H      4.28205461      8.97522294      9.68802859
  H      5.01025916      6.66961717     10.45605358
  H      6.14729306      5.74998255      9.41678129
  H      7.33439693      6.70466787     11.38853800
  H      6.80276879      8.32477545     10.94195427
  H      7.93491728      7.44745727      9.90012962
  H      6.19743338      9.04065686      4.93203182
  H      4.42738006      8.85222831      4.87811586
  H      5.48752903      7.40912627      4.84471067
  N      1.30244030      7.16447829      8.01155785
  C      1.51098364      6.07798913      8.74224845
  N      2.56551116      5.43249926      8.26859168
  C      3.04918957      6.12499799      7.20033612
  C      2.26024732      7.21981538      7.04167992
  C      0.30327793      8.17242532      8.24993787
  C      0.89488076      9.31216008      9.07323669
  C      3.08699711      4.20350509      8.78587030
  H      0.91629006      5.76227925      9.57379320
  H      3.89862915      5.77762351      6.64192193
  H      2.30063436      8.02903162      6.33486729
  H     -0.04429938      8.54457657      7.28310647
  H     -0.52949296      7.70320031      8.77794959
  H      0.10963880      9.98572489      9.40520518
  H      1.60930507      9.86831342      8.47240739
  H      1.40972424      8.90437416      9.94000938
  H      3.97755799      3.93312284      8.22272987
  H      2.33204393      3.42206245      8.68333326
  H      3.33232008      4.33506164      9.84077036
  N      2.31734437      4.83708412      4.51208696
  C      1.14401233      5.43032033      4.69764832
  N      1.17678788      6.63138075      4.13144824
  C      2.40233963      6.80574604      3.56219978
  C      3.11840862      5.67343110      3.79905213
  C      2.67548777      3.53545026      5.01478259
  C      2.47643711      2.46612934      3.94634080
  C      0.13693788      7.61749985      4.16866966
  H      0.36734186      5.02787806      5.34155922
  H      2.67252572      7.72623039      3.08850003
  H      4.13517561      5.42159411      3.57743760
  H      3.72469496      3.57836078      5.32000300
  H      2.03566606      3.33557182      5.87705200
  H      2.76036386      1.49693987      4.34552716
  H      3.09324653      2.67618441      3.07477101
  H      1.43277568      2.42390887      3.64127985
  H     -0.33601682      7.71521197      3.18992404
  H      0.59095150      8.57763353      4.44125008
  H     -0.60680063      7.32515739      4.90604722
 Cl     -0.16629058      4.23308530      7.23376145
 Cl      5.81202933      4.86438066      5.53606969
 Cl     38.24926575     -6.67029706    -27.33455226
 Cl      2.90876455      7.12301316     11.01822447
 Cl      2.36443867      9.92062757      4.93196278

