#B3LYP/6-31+G(d) OPT FREQ

62, Energy =    -96.28575535 au

0 1
  N      4.02827951      6.97892775      6.56542895
  C      5.24754582      6.52707139      6.29648106
  N      5.70461385      7.14733746      5.21377478
  C      4.75209724      8.02342247      4.78695446
  C      3.69853752      7.92138797      5.64157302
  C      3.21139472      6.57611666      7.68290761
  C      3.53306481      7.42439749      8.90912434
  C      6.95755096      6.91141923      4.55742369
  H      5.73575345      5.73757942      6.86059446
  H      4.88622619      8.61049576      3.90330478
  H      2.72766874      8.38077789      5.65007505
  H      2.16579387      6.71382379      7.39221294
  H      3.42609235      5.52762359      7.89706969
  H      2.89047636      7.12788584      9.73244887
  H      3.36291343      8.47748489      8.69720627
  H      4.56930998      7.27847211      9.20568209
  H      7.41540784      6.01621682      4.96997109
  H      7.62546219      7.76371371      4.69190432
  H      6.75969028      6.77640693      3.48977854
  N      5.65224535      1.84716974      4.64009257
  C      5.65911644      1.69706156      3.31903609
  N      5.51436541      2.88963065      2.74787037
  C      5.36326774      3.82066190      3.73609010
  C      5.45261773      3.16977000      4.92295817
  C      5.74651323      0.79941650      5.62374469
  C      6.97618056      0.98432109      6.50381554
  C      5.41701077      3.15889035      1.34253499
  H      5.83639636      0.77963427      2.79802254
  H      5.20338697      4.85166131      3.48499166
  H      5.43232859      3.52228939      5.94123944
  H      4.84503280      0.83043906      6.24136157
  H      5.76916536     -0.15471290      5.09298439
  H      7.04718902      0.16500135      7.21377984
  H      6.89457731      1.91609696      7.05903542
  H      7.88283233      1.00852120      5.90244928
  H      6.33017525      2.85402799      0.82968596
  H      5.26448840      4.23054267      1.21314332
  H      4.57254834      2.60912906      0.92628459
  N      2.10709407      4.16835561      4.12089665
  C      1.85783261      5.47492513      4.16049274
  N      1.96342047      5.96830578      2.93478377
  C      2.29921858      4.95784539      2.08860884
  C      2.38408758      3.82278040      2.83401499
  C      2.08509884      3.25535688      5.23859185
  C      0.70508191      3.21936295      5.88436085
  C      1.81585111      7.35133063      2.59004882
  H      1.53518960      6.06833734      5.00863036
  H      2.47438892      5.12300533      1.04658949
  H      2.61649529      2.80440454      2.57530515
  H      2.36171294      2.27098150      4.85087487
  H      2.83293295      3.57397381      5.96982426
  H      0.72105506      2.55094201      6.74024742
  H     -0.03558413      2.85749748      5.17505364
  H      0.41354540      4.21111102      6.22117149
  H      1.13373578      7.45772117      1.74707984
  H      2.79520347      7.74342306      2.30976844
  H      1.42659156      7.88392457      3.45565603
 Cl      5.03882478      6.59764526      1.88026891
 Cl      0.46790409      7.68213850      5.96324586
 Cl      5.89520615      4.00903241      8.08290574
 Cl      3.24239937      0.65684360      3.00176162
 Cl     31.95778923     21.60734403     -4.73622153

