#B3LYP/6-31+G(d) OPT FREQ

62, Energy =    -96.26006002 au

0 1
  N      1.57865600      0.59046755      4.83918891
  C      1.40937138      1.58182114      5.70803830
  N      2.33345988      2.50594335      5.49942478
  C      3.09887090      2.10731665      4.44787010
  C      2.62899277      0.90150663      4.02974320
  C      0.80974902     -0.62807079      4.77333082
  C      0.12927163     -0.78161422      3.42020101
  C      2.43886293      3.73417314      6.23071175
  H      0.69621596      1.62384062      6.51166139
  H      3.90412079      2.70177126      4.07284227
  H      2.93217547      0.26429187      3.21307787
  H      1.48666623     -1.47310018      4.93743104
  H      0.07869226     -0.60181614      5.58465168
  H     -0.49072946     -1.67356258      3.42036812
  H      0.87884867     -0.87722005      2.63780310
  H     -0.49492940      0.08416588      3.21178813
  H      1.88008821      4.50929479      5.70720410
  H      3.48315502      4.02728254      6.30941016
  H      2.01058583      3.57059821      7.22046501
  N      3.09174641      4.53714098      1.19318421
  C      1.88748139      3.98058000      1.01402226
  N      2.03690864      2.66293780      0.88957536
  C      3.35111514      2.35390281      1.07985754
  C      4.01409425      3.52150570      1.27288819
  C      3.34632100      5.92799446      1.47189764
  C      3.39601516      6.16948085      2.97676560
  C      0.98096438      1.70650409      0.74047079
  H      0.98978727      4.52817898      0.81699762
  H      3.66889020      1.32544473      1.07866602
  H      5.05337453      3.71739821      1.44689852
  H      4.29014239      6.21094099      0.99512361
  H      2.53502884      6.51208656      1.03225157
  H      3.42576373      7.23336422      3.18869916
  H      4.27043286      5.69577096      3.41480492
  H      2.50311401      5.73759726      3.42154710
  H      1.41468854      0.70984006      0.85066074
  H      0.50679579      1.80304539     -0.23651136
  H      0.23868506      1.88497739      1.51885800
  N      2.67155033      4.64320964     11.02053031
  C      3.31769296      5.28936902     11.98728911
  N      4.12036427      4.43224196     12.61151683
  C      3.97710471      3.20465676     12.02997070
  C      3.06870441      3.34009795     11.02591858
  C      1.72456042      5.21859606     10.09819538
  C      2.42042371      6.20172030      9.16365880
  C      4.96361481      4.78450937     13.71941806
  H      3.29340578      6.34734244     12.25246687
  H      4.51966459      2.34326301     12.36315989
  H      2.64924523      2.63440534     10.32779153
  H      1.27618323      4.39080705      9.53815860
  H      0.94657380      5.73231704     10.66818572
  H      1.70637118      6.59143822      8.44407205
  H      3.22016816      5.70233572      8.62032930
  H      2.84080261      7.02916436      9.72959176
  H      5.98330635      4.44351821     13.54274807
  H      4.58775078      4.33658974     14.64107575
  H      4.94067660      5.87870580     13.81019073
 Cl      4.18589611      7.95342163     13.28086377
 Cl      1.05929344      2.07810248      8.81676907
 Cl      0.74799301      4.03735941      3.29572617
 Cl      3.04182959     -0.90822539      1.29478287
 Cl     32.67744281     25.43545216    -18.01872621

