#B3LYP/6-31+G(d) OPT FREQ

62, Energy =    -96.27131173 au

0 1
  N      0.54860074      3.35642713      3.35400602
  C      1.73233968      3.24465811      3.95194170
  N      1.63910424      3.72220204      5.18528554
  C      0.36156286      4.16097669      5.37694324
  C     -0.32558569      3.92927048      4.22438025
  C      0.21036075      2.90921511      2.02376894
  C      0.60158701      1.45068209      1.82670947
  C      2.71366900      3.73888049      6.13534500
  H      2.64331770      2.81510135      3.54953220
  H      0.04931205      4.61018187      6.29749693
  H     -1.35600220      4.07734580      3.93892662
  H     -0.87399774      3.04361354      1.91334435
  H      0.72982038      3.53871489      1.29429246
  H      0.32714541      1.13286527      0.82473403
  H      0.07246315      0.82515247      2.54264838
  H      1.67159130      1.30934705      1.96012053
  H      3.07730475      4.76189441      6.29728332
  H      3.52350356      3.13153576      5.73523840
  H      2.37399675      3.33418693      7.08916043
  N      8.93069530      3.94380838      5.09062069
  C      8.12833649      4.86182830      4.55069199
  N      6.86922448      4.46167143      4.66128065
  C      6.85800155      3.25952922      5.29717586
  C      8.15103701      2.92939513      5.56187952
  C     10.37600490      3.99825871      5.05488582
  C     11.02103776      3.57499804      6.36311304
  C      5.69426864      5.13052033      4.18007602
  H      8.50904639      5.76744340      4.09480585
  H      5.94978898      2.70573455      5.42969992
  H      8.55534379      2.06219238      6.03853360
  H     10.71711228      3.33661306      4.24993099
  H     10.64334883      5.02282106      4.77918485
  H     12.09513362      3.71734243      6.29141020
  H     10.83642374      2.52318483      6.56989234
  H     10.66873766      4.15376851      7.21086276
  H      5.05104421      4.38169233      3.71283580
  H      5.97882048      5.89181341      3.45891331
  H      5.14926034      5.60059632      5.00872473
  N      7.50904342      6.26129578      7.74568263
  C      8.82610495      6.24583306      7.93640438
  N      9.39093081      7.07730127      7.07192048
  C      8.41464486      7.64268934      6.30764035
  C      7.22916682      7.12973546      6.73254602
  C      6.53340110      5.50269591      8.49074466
  C      6.58002606      5.86779257      9.97066824
  C     10.80266930      7.30508021      6.92953783
  H      9.39309608      5.66748954      8.66598949
  H      8.64682796      8.30656791      5.50037252
  H      6.21508993      7.30274140      6.42297957
  H      5.55125128      5.73562017      8.06287952
  H      6.74261772      4.43649411      8.36069334
  H      5.81486445      5.31376244     10.51028604
  H      6.39173409      6.93418825     10.09691241
  H      7.55224858      5.62694764     10.39772790
  H     11.03404700      8.34398707      7.16564916
  H     11.06906051      7.11725908      5.88870141
  H     11.33374986      6.63732163      7.60223290
 Cl      4.59148276      1.92169067      3.49345630
 Cl     10.27326384      7.08176990      3.64339902
 Cl      3.95796824      6.77088365      6.68100578
 Cl     10.97770602      4.84369371      9.70997260
 Cl     -3.05473559      3.55644096      2.49009389

