62
Energy =    -96.26874530 au
  N      7.24665612      2.56537491      7.70158201
  C      6.86873526      1.29537599      7.51501916
  N      5.73287982      1.07752355      8.18754096
  C      5.38325184      2.23314315      8.81728478
  C      6.33031501      3.16269512      8.51532330
  C      8.41529273      3.21797306      7.16111852
  C      8.66656305      2.84415140      5.70714296
  C      4.97549001     -0.14085874      8.20954053
  H      7.38292462      0.56564579      6.92495680
  H      4.50456175      2.26189908      9.43808600
  H      6.41837634      4.20684407      8.75620305
  H      8.23531158      4.29800880      7.25394042
  H      9.28526473      2.95732280      7.77354099
  H      9.45988097      3.47250495      5.31339056
  H      7.77227336      3.01469058      5.11354309
  H      8.97084359      1.80439348      5.60030575
  H      4.16712664     -0.01800173      8.94085295
  H      5.60889664     -0.98013548      8.49493520
  H      4.54617605     -0.33651602      7.22590515
  N      4.07673394      5.63130331      5.70949979
  C      4.29877555      6.60653473      6.58614300
  N      3.22541685      7.38268504      6.64827222
  C      2.28861125      6.88581300      5.79256181
  C      2.82236426      5.78283028      5.19922774
  C      5.02577434      4.59683732      5.37930963
  C      4.41969364      3.21674140      5.59766931
  C      3.05410159      8.54162130      7.47439017
  H      5.22112610      6.71572133      7.14019048
  H      1.31412276      7.32314812      5.72348898
  H      2.41338363      5.09362964      4.47855967
  H      5.30711688      4.70504194      4.32731717
  H      5.90399992      4.76842100      6.00825753
  H      5.16551424      2.45126537      5.39894643
  H      3.58629975      3.06905238      4.91122867
  H      4.06805477      3.11248417      6.62163003
  H      2.03812146      8.51070281      7.89102072
  H      3.16525206      9.44986693      6.88030151
  H      3.79421343      8.53475991      8.27044204
  N      1.20965673      3.85553484      8.44663901
  C      1.47015413      2.63210194      7.99640569
  N      1.04560428      2.53651512      6.74189890
  C      0.50406343      3.73387076      6.38153973
  C      0.60560345      4.56607378      7.45382213
  C      1.54601841      4.34107139      9.76335858
  C      2.45182073      5.56213811      9.67362111
  C      1.13970064      1.38814392      5.88922014
  H      1.93377165      1.85613432      8.59334478
  H      0.14388324      3.90375538      5.38830517
  H      0.30449132      5.59449295      7.58796016
  H      0.62219410      4.61651572     10.27949757
  H      2.02590992      3.51803240     10.29826398
  H      2.75466382      5.86389898     10.67180351
  H      1.90863382      6.38391692      9.21207541
  H      3.34450735      5.33860505      9.09303503
  H      1.44224025      1.73175420      4.89098562
  H      0.17060985      0.89291683      5.81241055
  H      1.86900171      0.69191489      6.29552799
 Cl     -0.00445515      7.72340856      8.14672983
 Cl      7.26226155      6.22215164      7.77308990
 Cl     35.42361292     -5.25900416     -6.13414606
 Cl      1.88827142      3.20002855      3.28376389
 Cl      2.77902284      0.93204680     10.37512583
