#B3LYP/6-31+G(d) OPT FREQ

62, Energy =    -96.27114498 au

0 1
  N      5.96702400      7.41625839      9.43345675
  C      6.27306708      6.97384767      8.21614079
  N      6.34479825      8.01314984      7.38270650
  C      6.08432607      9.14651812      8.09847269
  C      5.85224251      8.77066959      9.38502338
  C      5.76552676      6.61262106     10.60991068
  C      6.97458700      6.68120233     11.53621782
  C      6.60796953      7.90929630      5.97660411
  H      6.33430865      5.94843807      7.88093047
  H      6.07839126     10.11785637      7.64921779
  H      5.53580313      9.33533287     10.23762186
  H      4.87297058      7.01568243     11.10765762
  H      5.58735266      5.58484582     10.29064107
  H      6.79055696      6.07411260     12.41781400
  H      7.15008021      7.70545432     11.85538430
  H      7.86710517      6.30856724     11.03553884
  H      7.63991686      8.18707334      5.75372030
  H      5.93339092      8.55899368      5.42191768
  H      6.43857979      6.86926335      5.68242556
  N      1.96147715      8.55510816      7.81055833
  C      1.83124311      7.47635634      8.57591571
  N      2.70448648      6.55658604      8.17796020
  C      3.35871844      7.02767572      7.07803566
  C      2.90173440      8.28353168      6.85374392
  C      1.21748088      9.77873267      7.94260104
  C      2.05645978     10.84663744      8.63670277
  C      2.80668110      5.22398242      8.69246214
  H      1.22266440      7.41257736      9.45326635
  H      4.07831289      6.41963120      6.56326438
  H      3.14925698      8.99440494      6.09272046
  H      0.90775452     10.10509409      6.94483662
  H      0.32387306      9.55477222      8.52678955
  H      1.44823113     11.71888266      8.85909458
  H      2.89309895     11.14853099      8.00963522
  H      2.45176060     10.43964162      9.56501426
  H      2.96800657      5.25487055      9.77008769
  H      3.63472730      4.72169643      8.19591705
  H      1.87288174      4.69618528      8.48632264
  N      1.90288769      4.40977094      5.01294819
  C      0.61840908      4.75122708      4.94125629
  N      0.51808483      5.94120042      4.36181340
  C      1.76624478      6.34036747      3.99150249
  C      2.63593516      5.37910570      4.39283917
  C      2.43465109      3.16893433      5.51534441
  C      2.49172333      2.12797631      4.40072685
  C     -0.72679786      6.59872070      4.10703116
  H     -0.19481910      4.22452828      5.39398600
  H      1.93855702      7.26322893      3.47674742
  H      3.70171794      5.31027155      4.31667919
  H      3.43307629      3.36878024      5.91237169
  H      1.78443640      2.82409778      6.32241900
  H      2.68892024      1.14252858      4.81410939
  H      3.27718654      2.37681402      3.69134511
  H      1.54117933      2.11823560      3.87113913
  H     -1.35204075      5.92413303      3.51805496
  H     -0.55117567      7.52246094      3.55984356
  H     -1.21036741      6.81229231      5.06217175
 Cl     -0.23074347      6.45140155      7.41912147
 Cl      5.70092042      4.69601596      6.18261668
 Cl     44.59580973     -7.65729754    -32.04977710
 Cl      3.25841663      8.59135823     10.97650245
 Cl     -0.32985978      3.46777825      2.85189684

