#B3LYP/6-31+G(d) OPT FREQ

62, Energy =    -96.28859450 au

0 1
  N      5.25041584      7.72390080      8.70276529
  C      5.68650442      7.03100462      7.65808585
  N      5.50245676      7.75249301      6.55418922
  C      4.93413222      8.93928004      6.90960473
  C      4.78001319      8.92153141      8.26087231
  C      5.28236090      7.28758986     10.07447755
  C      6.68485995      7.43085086     10.65457821
  C      5.87681257      7.39276976      5.21572007
  H      6.05955036      6.02726657      7.69786568
  H      4.65193042      9.65684691      6.16301256
  H      4.35575108      9.62642280      8.95245048
  H      4.57675786      7.91383676     10.62720819
  H      4.96054546      6.24395743     10.09489555
  H      6.69131286      7.07054566     11.67926210
  H      6.98821022      8.47615221     10.65388619
  H      7.40432887      6.85244239     10.07796024
  H      6.95469362      7.50466460      5.08123790
  H      5.35537759      8.06363824      4.52837527
  H      5.59358136      6.36190332      5.01369291
  N      1.35524824      7.02766960      8.80088084
  C      1.59772335      8.25948495      8.37192008
  N      1.10136708      8.40030592      7.14461935
  C      0.51873897      7.22424624      6.78453267
  C      0.68145329      6.36298344      7.82513105
  C      1.76005978      6.49769696     10.07777372
  C      0.55991982      6.02788066     10.89045501
  C      1.19683880      9.57881914      6.32776735
  H      2.09129190      9.00793112      8.97856288
  H      0.01125763      7.05547537      5.85092302
  H      0.37929392      5.34172175      7.91788694
  H      2.44960699      5.66903550      9.89033306
  H      2.28003651      7.30019132     10.60502867
  H      0.90457189      5.63299556     11.84128138
  H      0.01101699      5.24691628     10.36986278
  H     -0.11143106      6.86085256     11.08414442
  H      0.26805780      9.71533068      5.78003986
  H      2.01531780      9.49328844      5.60462665
  H      1.38383172     10.43971885      6.96297771
  N      1.96656794      4.62692447      5.01867487
  C      1.36248703      5.02512759      3.89888359
  N      1.78824810      6.24905671      3.59780692
  C      2.65673435      6.65594957      4.56727541
  C      2.77625605      5.63754997      5.45483043
  C      1.78171428      3.37055025      5.69854286
  C      2.41142759      2.22234677      4.91678121
  C      1.27660406      7.08734354      2.55474491
  H      0.70213250      4.43242778      3.30404244
  H      3.10583616      7.63303895      4.52559796
  H      3.33632948      5.53414041      6.36725676
  H      2.26101357      3.46288208      6.67654710
  H      0.70891209      3.20422933      5.82681915
  H      2.26959539      1.28960788      5.45487332
  H      3.47945388      2.39260898      4.79871456
  H      1.95833272      2.12945501      3.93152524
  H      1.45254415      6.64205254      1.57500143
  H      1.77238290      8.05414157      2.61737016
  H      0.20045865      7.20058726      2.70722771
 Cl     -1.15750629      5.67358025      4.45286872
 Cl      4.03425268      4.58867589      8.32069085
 Cl     47.78118798     -9.70114684    -36.98797444
 Cl      2.99029743      9.71052074     10.86872503
 Cl      3.72451179      9.68055268      3.92493848

