#B3LYP/6-31+G(d) OPT FREQ

62, Energy =    -96.27331260 au

0 1
  N      5.58890237      7.93558659      7.43279699
  C      4.79214083      7.58226932      8.43783709
  N      3.53974835      7.88135858      8.12061030
  C      3.53052477      8.44489289      6.88329136
  C      4.82077158      8.47985699      6.45013266
  C      7.02118255      7.76440313      7.40179535
  C      7.40384523      6.29484571      7.53057229
  C      2.40096339      7.60530434      8.94666993
  H      5.06054336      7.01988256      9.31698630
  H      2.61681443      8.74578516      6.41062361
  H      5.23414225      8.77530349      5.50787578
  H      7.37051329      8.13746581      6.43661236
  H      7.46330916      8.35864468      8.21250588
  H      8.47618058      6.20561082      7.68547819
  H      7.13829974      5.79884800      6.59942664
  H      6.87918990      5.82179195      8.35693611
  H      2.58286514      6.65494637      9.45290865
  H      1.50963761      7.55530739      8.32331469
  H      2.27168867      8.39073278      9.69402610
  N      2.19279226      4.20416376      7.45932297
  C      3.21726851      3.36730799      7.55498656
  N      4.25217958      3.86837998      6.89853086
  C      3.88540292      5.06343925      6.35995085
  C      2.58714309      5.26911572      6.70597542
  C      0.86118916      3.96256678      7.94746311
  C      0.81975869      3.87654057      9.46864268
  C      5.53687150      3.24931776      6.75719336
  H      3.21587009      2.44268036      8.09298809
  H      4.56670540      5.65139796      5.76829077
  H      1.91462793      6.07176938      6.47660646
  H      0.23261745      4.78382848      7.59501733
  H      0.51712316      3.02308496      7.49951151
  H     -0.20133470      3.70111869      9.80258512
  H      1.18431525      4.80071522      9.91072038
  H      1.44984407      3.06538276      9.82342649
  H      6.08481653      3.31328321      7.69918166
  H      6.08715237      3.76839835      5.97509901
  H      5.40502570      2.20223934      6.48045543
  N      1.09662603      5.22977900      3.82849897
  C      0.13921749      6.15283343      3.81000809
  N     -0.97977957      5.63611968      4.31538784
  C     -0.70978931      4.35395583      4.69784985
  C      0.58768654      4.09598632      4.38854265
  C      2.45948881      5.38745940      3.36001812
  C      2.92231110      6.83245541      3.43582462
  C     -2.17712622      6.38062356      4.57646842
  H      0.23819587      7.15610467      3.45407215
  H     -1.44284359      3.72943597      5.16353788
  H      1.18064364      3.21166497      4.59440413
  H      3.08676798      4.75288447      3.98770784
  H      2.52139476      5.01251326      2.33219285
  H      4.00858248      6.86107797      3.47660444
  H      2.55025328      7.29351754      4.34551812
  H      2.58541577      7.41059618      2.57877846
  H     -1.92431303      7.18366237      5.27612987
  H     -2.92354793      5.72744743      5.02213409
  H     -2.56866293      6.81587246      3.65709665
 Cl      0.26381785      7.82236040      6.13629794
 Cl      2.17905036      1.62701263      5.63706591
 Cl     36.53324857     -6.19438901    -31.76742748
 Cl      4.32821116      4.97107906      9.94859128
 Cl      6.21328367      6.56565090      4.36168379

