#B3LYP/6-31+G(d) OPT FREQ

62, Energy =    -95.90835270 au

0 1
  N      2.75717713      0.80394784      5.65868595
  C      2.14273499      1.05249731      6.82136319
  N      1.41014177      2.16122188      6.67664871
  C      1.53669894      2.61257951      5.39230055
  C      2.38695974      1.75436915      4.74748010
  C      3.61108423     -0.35662623      5.38059094
  C      3.01805352     -1.22847549      4.28964295
  C      0.46917624      2.68646275      7.65934299
  H      2.16938871      0.43271255      7.69929701
  H      1.00425699      3.47453152      5.03436259
  H      2.72063566      1.73631264      3.72655985
  H      4.59530867      0.02070420      5.10450982
  H      3.70241899     -0.90229616      6.31687487
  H      3.67739835     -2.07880824      4.12112931
  H      2.91203853     -0.68071232      3.35561436
  H      2.03667283     -1.59089545      4.57932162
  H     -0.53920478      2.44863511      7.33167029
  H      0.60932428      3.76096862      7.74009023
  H      0.65293050      2.20293196      8.61204786
  N      3.37675396      2.50584097     10.99326322
  C      3.73687335      3.16798325      9.88736269
  N      4.43569782      4.24612119     10.25637249
  C      4.54763746      4.25776029     11.61895264
  C      3.87973745      3.15716573     12.08571065
  C      2.64532942      1.23396704     11.02121299
  C      3.47981830      0.13186983     11.64650022
  C      5.13949154      5.14738056      9.35117192
  H      3.56281214      2.85432955      8.87398447
  H      5.10334632      5.01537184     12.14028524
  H      3.75655571      2.78627031     13.08631380
  H      1.72038172      1.40115510     11.57240869
  H      2.39318891      1.00176548      9.98911178
  H      2.90391749     -0.79251953     11.64011236
  H      3.74579586      0.36828599     12.67463271
  H      4.39864563     -0.01728864     11.08803973
  H      6.20206212      4.92578530      9.40219134
  H      4.94044836      6.17248828      9.65160569
  H      4.79094948      4.96932548      8.34021740
  N     10.94527913     12.94576109      4.76151646
  C     10.44181121     12.53858601      5.93278195
  N     10.02624922     13.61676114      6.60490686
  C     10.24227567     14.72826083      5.83862255
  C     10.82193672     14.30498918      4.67239099
  C     11.45567067     12.06509861      3.70446374
  C     10.63138728     12.19043400      2.43685891
  C      9.27767739     13.59567000      7.85637701
  H     10.32082069     11.51937866      6.25245212
  H      9.95009526     15.71060161      6.16144210
  H     11.11857194     14.85553622      3.79897854
  H     12.49899465     12.32947961      3.53453863
  H     11.41782429     11.05365016      4.10228908
  H     11.03853411     11.51681808      1.68408319
  H     10.65567962     13.20497202      2.04466563
  H      9.59502349     11.92846630      2.62578492
  H      8.23601355     13.81485542      7.63807021
  H      9.69893842     14.33708613      8.52984991
  H      9.34571356     12.60327180      8.28734233
 Cl      6.15744755      1.91675176      7.24700412
 Cl      3.33538614      7.26181301      7.27758315
 Cl      4.62502541      2.10071521      4.41006069
 Cl      0.17535051      0.29297611      6.85810859
 Cl      0.64752755      4.07952358      0.96052975

