#B3LYP/6-31+G(d) OPT FREQ

62, Energy =    -96.26456335 au

0 1
  N      3.90030866      3.70542029      6.30339381
  C      3.49529948      3.74709244      5.03513082
  N      2.36530655      4.44180739      4.96087877
  C      2.00362305      4.79715521      6.23040720
  C      2.96746787      4.33892547      7.06801856
  C      5.06907774      3.01278481      6.77913340
  C      6.30819474      3.88798427      6.63648956
  C      1.59355668      4.61277717      3.76530400
  H      4.05315593      3.41766986      4.18382335
  H      1.10468774      5.33975534      6.43864294
  H      3.07147923      4.43645525      8.12814614
  H      4.90461157      2.76095867      7.82866503
  H      5.16112971      2.08736831      6.20426990
  H      7.16149285      3.40861083      7.10669277
  H      6.12521148      4.84738191      7.11569699
  H      6.53094063      4.06103138      5.58773303
  H      2.26782670      4.85272360      2.94144466
  H      0.87073474      5.41322853      3.90376500
  H      1.07771141      3.67839352      3.53666141
  N      7.18649753      7.76652998      5.84169335
  C      5.89475366      8.11494036      5.82013065
  N      5.29622290      7.47601174      4.81363128
  C      6.19910344      6.63488022      4.23550098
  C      7.38105112      6.81168095      4.87413143
  C      8.15332471      8.16436494      6.83342538
  C      8.22351584      7.13568998      7.95812821
  C      3.89751689      7.52059653      4.50543754
  H      5.46370798      8.91103546      6.38945768
  H      5.90304330      6.00773773      3.41276379
  H      8.33447347      6.35149697      4.72205508
  H      9.12594820      8.27618435      6.34289540
  H      7.84364758      9.13215570      7.23503924
  H      8.84456630      7.50579752      8.77015535
  H      8.63421713      6.19689186      7.59332510
  H      7.21532592      6.95515958      8.32852107
  H      3.58586762      8.54333239      4.29364778
  H      3.34022929      7.14713328      5.36697207
  H      3.72109941      6.88689527      3.63672933
  N      7.15890653      1.91117870      2.09217431
  C      5.95490859      2.46353964      1.96244299
  N      5.03440597      1.50746820      1.98125650
  C      5.67046617      0.31078888      2.13464126
  C      7.00637215      0.56538602      2.20600238
  C      8.42593094      2.59902384      2.14054277
  C      8.56613582      3.37006203      3.44684131
  C      3.61870711      1.71527952      1.87729810
  H      5.72633212      3.51337134      1.85998774
  H      5.13163622     -0.61179019      2.19280119
  H      7.87989121     -0.06623231      2.28723087
  H      9.20493058      1.82535952      2.06203153
  H      8.48898909      3.28304641      1.29042310
  H      9.53496220      3.86001508      3.47451928
  H      8.50406169      2.68561572      4.28934688
  H      7.78472156      4.12317854      3.53607077
  H      3.13736401      1.50084804      2.84293297
  H      3.19811177      1.05887538      1.11652373
  H      3.43772223      2.75518842      1.61341076
 Cl      4.78415746      6.87342184      7.77105717
 Cl      2.50110418      1.34557596      4.95743566
 Cl      4.34168896      5.28925125      1.87285875
 Cl     10.11415581     -0.20049844      2.04567544
 Cl     -2.23780524     37.35653310      2.83138953

