#B3LYP/6-31+G(d) OPT FREQ

62, Energy =    -96.28012516 au

0 1
  N      5.43313099      4.82533058      3.69368058
  C      5.70271765      4.36015885      2.48065139
  N      5.73395821      5.36550582      1.61937208
  C      5.49188134      6.51718420      2.30096219
  C      5.29440922      6.18115910      3.60178341
  C      5.20159663      3.97518549      4.83656722
  C      5.56350720      4.63006663      6.16008435
  C      6.05237118      5.28878529      0.22459909
  H      5.84556094      3.32899986      2.23466896
  H      5.46673991      7.46440024      1.79671230
  H      5.08786708      6.82585267      4.43179482
  H      4.14778078      3.67515654      4.81649530
  H      5.80784649      3.07699254      4.69314085
  H      5.27409831      3.97127089      6.97573235
  H      5.05227331      5.57901484      6.29337915
  H      6.63606418      4.79553682      6.21409915
  H      5.93730001      6.28138933     -0.20876017
  H      5.38575470      4.58488912     -0.27484725
  H      7.08559535      4.95312721      0.11114294
  N      7.59448885      9.35960942      2.47588861
  C      7.50133740      8.82109390      3.68702427
  N      8.11926269      7.64345726      3.68140900
  C      8.60671771      7.41208417      2.43418724
  C      8.27443898      8.49165805      1.67510346
  C      7.06001694     10.62196372      2.02633043
  C      6.56955891     11.48143828      3.17678042
  C      8.27617842      6.76333367      4.80077709
  H      6.91517952      9.19654270      4.50875076
  H      9.07603266      6.47617182      2.19479383
  H      8.43186222      8.69297802      0.63610526
  H      7.85046438     11.13877043      1.47271561
  H      6.25431808     10.39050525      1.31671923
  H      6.13783641     12.39800453      2.78519227
  H      7.38996792     11.74201588      3.84288367
  H      5.81043113     10.96063801      3.75081655
  H      9.21898541      6.96996992      5.31247690
  H      8.30120942      5.73599950      4.41536173
  H      7.45000436      6.90818675      5.49271094
  N      2.69572661      8.61785123      2.09624664
  C      2.56681009      8.11720273      3.31968454
  N      2.30822201      6.81561585      3.22684743
  C      2.28090044      6.47029898      1.91278654
  C      2.52673965      7.60348617      1.20158246
  C      2.99176714      9.98012514      1.72379725
  C      2.94531838     10.92630657      2.90836125
  C      2.07147618      5.91278793      4.31597922
  H      2.76048720      8.63888011      4.23889792
  H      2.15414020      5.44412277      1.62071542
  H      2.63762578      7.76284262      0.14975644
  H      3.98000348      9.97165290      1.24513624
  H      2.26409239     10.28187430      0.96260735
  H      3.23962843     11.92188579      2.58751273
  H      3.62747569     10.60005564      3.68814361
  H      1.94015695     10.97848224      3.32387892
  H      2.70655962      6.17549268      5.15839105
  H      2.29149126      4.90135814      3.95676022
  H      1.02669658      5.96017321      4.62835245
 Cl      2.90304489      3.34131026      2.46767093
 Cl      5.42962137      8.87559065     -0.19366657
 Cl      4.79393457      9.06161396      5.45777574
 Cl      8.50608440      4.18562703      2.78878327
 Cl    -16.89518143     25.61130106     24.63711242

