62
Energy =    -96.23870611 au
  N      4.26015756      7.91855697      6.43648526
  C      5.32281431      8.50232748      5.88666221
  N      5.08433828      8.70876972      4.59720314
  C      3.83168476      8.25634504      4.31344168
  C      3.31310496      7.76047852      5.47133910
  C      4.09563960      7.55040343      7.82002759
  C      3.46423207      8.69052501      8.61228513
  C      6.01046273      9.26086644      3.65154856
  H      6.27439035      8.68467630      6.35598245
  H      3.44471945      8.27233339      3.31511407
  H      2.38778104      7.25965710      5.67064474
  H      3.45314899      6.66305261      7.84138627
  H      5.07614642      7.29970903      8.22787858
  H      3.32955377      8.38445217      9.64523838
  H      2.49170924      8.94721827      8.19944317
  H      4.10020108      9.57356883      8.58955146
  H      5.88666876      8.72599700      2.70742007
  H      7.02012841      9.12522696      4.03636387
  H      5.81424539     10.32183843      3.49588227
  N      4.83403931      4.16603908      3.33054180
  C      5.52543932      5.29344002      3.51184517
  N      6.79070560      5.10046502      3.13362402
  C      6.88548424      3.84071264      2.61892610
  C      5.66595920      3.25631477      2.74372910
  C      3.42483257      3.97955262      3.58235722
  C      2.59279147      4.49447975      2.41335197
  C      7.78540363      6.12991960      3.03952308
  H      5.15497146      6.15008727      4.02824773
  H      7.79514204      3.45946776      2.20215077
  H      5.33340284      2.27783604      2.46345701
  H      3.25096296      2.91151170      3.73428024
  H      3.15887328      4.50734901      4.50317217
  H      1.54458260      4.52575051      2.69306729
  H      2.70924147      3.85458665      1.54049307
  H      2.92077107      5.49594860      2.14876743
  H      7.46980516      6.83259343      2.26515900
  H      8.74089322      5.68973789      2.76579510
  H      7.88271123      6.67387429      3.98283240
  N      5.95962962      3.26407909      6.36822876
  C      7.28059077      3.09488670      6.10553910
  N      7.87712459      4.31331659      6.14489781
  C      6.92153076      5.24204013      6.45220820
  C      5.74014409      4.59561955      6.59010666
  C      4.95769328      2.24409047      6.51470955
  C      5.10786496      1.50246896      7.84150465
  C      9.26417713      4.61060802      5.94817380
  H      7.76476025      2.17206173      5.87272522
  H      7.18638265      6.28228547      6.50443583
  H      4.74274180      4.94048972      6.79623797
  H      3.98803328      2.74897029      6.48442328
  H      5.03442382      1.54078144      5.67919347
  H      4.33013929      0.74963889      7.93051356
  H      5.00685112      2.20146180      8.66752144
  H      6.07895599      1.01516894      7.90847981
  H      9.86405212      4.25213664      6.78838311
  H      9.36636236      5.69442858      5.87584927
  H      9.63241406      4.14557257      5.03293970
 Cl     21.16726415    -17.97585778      4.72800030
 Cl      2.50527530      4.82593073      6.72657856
 Cl    -11.41993839     33.52014448     -2.92940049
 Cl      4.93107630      6.88901107      1.53967839
 Cl      8.45677156      8.03669307      5.82170160
