62
Energy =    -96.27939902 au
  N      6.98400384      5.66690537      8.48883667
  C      7.00818659      6.96103828      8.79093570
  N      7.36386104      7.09667754     10.06447605
  C      7.56449020      5.85393924     10.58676468
  C      7.32993209      4.95432338      9.59343150
  C      6.68786976      5.10032462      7.19967745
  C      7.96117731      4.94609224      6.37324082
  C      7.49757314      8.32257047     10.79491794
  H      6.65336445      7.74683826      8.14262331
  H      7.81861939      5.71212757     11.61603302
  H      7.29576134      3.87982414      9.58237648
  H      6.23843334      4.11696875      7.38305978
  H      5.98781693      5.76713549      6.69461337
  H      7.71435762      4.52585272      5.40257108
  H      8.65441342      4.27362523      6.87282970
  H      8.44417908      5.91054846      6.22316095
  H      6.87152638      8.25133140     11.69240653
  H      7.16619035      9.15178337     10.17602310
  H      8.53620988      8.47378169     11.09268898
  N      1.13353486      7.66461199      9.30668037
  C      2.13240184      8.53514992      9.18020152
  N      2.86469035      8.51753476     10.28492205
  C      2.32756624      7.60833038     11.14103941
  C      1.23677687      7.07294090     10.52676463
  C      0.11897247      7.39016111      8.31843155
  C      0.73674772      6.83345893      7.04334812
  C      4.05532756      9.28457445     10.50384440
  H      2.36721036      9.11825287      8.31194758
  H      2.78611238      7.39830281     12.08708714
  H      0.58745438      6.26767732     10.80599680
  H     -0.54087869      6.62955911      8.74037180
  H     -0.43904606      8.31226908      8.12021849
  H     -0.01720935      6.76847445      6.26268755
  H      1.09611056      5.83415443      7.26576585
  H      1.55975884      7.45316095      6.69453221
  H      4.63167696      9.27755891      9.57693025
  H      4.61544156      8.81976377     11.31643078
  H      3.80719055     10.31287923     10.77129212
  N      3.31842379      4.20234488      8.38731563
  C      3.41113493      3.54559681      9.53483383
  N      3.91777747      4.34327733     10.46341877
  C      4.17266507      5.54822792      9.88783231
  C      3.78554069      5.46640314      8.58741898
  C      2.76669735      3.61372084      7.18977236
  C      3.26741677      4.26936159      5.91408709
  C      4.20976318      4.00283775     11.82543982
  H      3.09372227      2.53533508      9.68987592
  H      4.60377553      6.34750559     10.45508179
  H      3.82790851      6.22284558      7.83087361
  H      3.05705018      2.55924325      7.19772715
  H      1.67416443      3.67107084      7.27066307
  H      2.82679819      3.76372833      5.05691915
  H      4.34918059      4.17994134      5.84775835
  H      2.99539772      5.31984449      5.86788425
  H      4.57745222      4.89449717     12.33339610
  H      4.97279652      3.22351532     11.85162469
  H      3.30814604      3.64305753     12.32220996
 Cl     21.29338288     31.40642771    -13.56208407
 Cl      5.79566994      2.25906386      8.73851475
 Cl      5.26280069      7.20896965     12.88512214
 Cl      0.35525816      4.26350116      9.42500464
 Cl      4.68807734      8.53921864      7.26205989
