62
Energy =    -95.88333014 au
  N      8.35309551      1.37631323      6.50378286
  C      8.68301480      2.61120712      6.10714108
  N      9.90806316      2.88327434      6.56772900
  C     10.37955411      1.79379427      7.24597681
  C      9.39781724      0.83997729      7.20489483
  C      7.11070438      0.67656130      6.15702954
  C      7.39008987     -0.56902332      5.33700711
  C     10.69537408      4.06324995      6.22893525
  H      8.10117975      3.24973135      5.46732382
  H     11.36487632      1.76940568      7.67390275
  H      9.38151359     -0.16360752      7.58764218
  H      6.59858881      0.43902444      7.08902239
  H      6.50247743      1.38706885      5.60208423
  H      6.44385701     -1.05149489      5.09604489
  H      8.01062301     -1.27537956      5.88444895
  H      7.90455734     -0.31429403      4.41570030
  H     11.45659433      3.77412970      5.50940980
  H     11.14608207      4.45673926      7.13599255
  H     10.04275746      4.79976021      5.77411837
  N      7.08956806      1.65915047      0.92980801
  C      8.40262101      1.40048235      0.94062917
  N      9.00234526      2.25478175      0.10551921
  C      8.06043230      3.09108380     -0.42616629
  C      6.85099774      2.71629676      0.09543181
  C      6.08371745      0.98134951      1.75580846
  C      5.41297424      1.94925407      2.71248937
  C     10.44377240      2.40810488     -0.05498618
  H      8.90374282      0.68306187      1.56496574
  H      8.31836617      3.88814176     -1.09902883
  H      5.87092555      3.13440470     -0.04090620
  H      5.36452193      0.51862650      1.08057368
  H      6.60714316      0.19364328      2.29271604
  H      4.68213353      1.40503960      3.30906351
  H      4.90069669      2.74664085      2.17822435
  H      6.14425962      2.40405554      3.37335800
  H     10.75393385      3.31035837      0.46511206
  H     10.67416663      2.47077523     -1.11504061
  H     10.93803558      1.55475345      0.39524649
  N      8.22203769      7.15285939      1.38714348
  C      7.88643561      7.47398163      0.13199962
  N      6.59845438      7.83167110      0.12376026
  C      6.11084638      7.76474151      1.39931876
  C      7.13690258      7.33708310      2.19905549
  C      9.56409743      6.76187245      1.83372072
  C     10.12492318      7.75781890      2.83148784
  C      5.88619413      8.39840760     -1.01574718
  H      8.54975533      7.51209777     -0.71308348
  H      5.10213086      8.04519227      1.64101204
  H      7.17840248      7.18465834      3.26159408
  H      9.48781762      5.76253681      2.26127943
  H     10.18149463      6.70716140      0.94010295
  H     11.12129592      7.43445376      3.12960623
  H      9.50119788      7.82527729      3.72036871
  H     10.18897876      8.74772280      2.39062827
  H      5.77645087      9.46759409     -0.85587119
  H      4.91641123      7.91538023     -1.09899474
  H      6.47434492      8.23501431     -1.91162413
 Cl      6.71978970      2.98695470      6.88954390
 Cl      0.88888334      5.41607943      6.96218202
 Cl      4.66799132      4.91331584      0.76312198
 Cl      0.16900704      2.32344415      1.36981094
 Cl      3.27779889      8.39152101      7.59804059
