#B3LYP/6-31+G(d) OPT FREQ

62, Energy =    -96.27159923 au

0 1
  N      1.65771748      2.75558543      7.99096297
  C      2.90680476      3.04580861      7.63504378
  N      3.52171733      3.63885237      8.64967538
  C      2.63858700      3.72828431      9.68490939
  C      1.46650255      3.17067592      9.27132404
  C      0.67364884      2.05890014      7.20110831
  C      0.84058241      0.55151010      7.35865949
  C      4.87736394      4.10474540      8.63586531
  H      3.37478191      2.83847077      6.68594475
  H      2.91720475      4.16090997     10.62286223
  H      0.49370859      3.07392302      9.72680756
  H     -0.31340442      2.36194214      7.57688207
  H      0.80052992      2.34682934      6.15553464
  H      0.10964666      0.03947167      6.73855063
  H      0.66908583      0.27073752      8.39562627
  H      1.84239802      0.23959017      7.06100378
  H      4.90483750      5.18834889      8.75120555
  H      5.32605224      3.82493485      7.68420414
  H      5.44854381      3.64933222      9.45634884
  N      9.15773457      3.18850977      1.66717797
  C      8.01317220      3.77898216      1.34871766
  N      7.11380474      3.49902118      2.28954304
  C      7.70889244      2.71044491      3.22986719
  C      8.99547743      2.51323141      2.84015219
  C     10.37439833      3.27079473      0.89740002
  C     11.50211898      3.85585186      1.73884816
  C      5.74901560      3.94176090      2.33589731
  H      7.88558024      4.37120596      0.44448076
  H      7.16890123      2.36431805      4.08939153
  H      9.80536036      1.98877254      3.32318403
  H     10.64538542      2.26281794      0.56965273
  H     10.15671164      3.89189390      0.02227844
  H     12.40790453      3.91532566      1.14207092
  H     11.69510384      3.22981692      2.60759019
  H     11.24063894      4.85646867      2.07507399
  H      5.69947882      5.02136839      2.19863275
  H      5.33322552      3.67196931      3.30822578
  H      5.16709200      3.46285259      1.54782363
  N      7.16142667      0.65703063      7.84264298
  C      7.71505744      1.86231666      7.87797066
  N      8.55302114      1.98468227      6.85682625
  C      8.52695253      0.83210548      6.13678354
  C      7.65143556     -0.00358567      6.75687825
  C      6.17422015      0.17572292      8.77801601
  C      4.82147386      0.01923590      8.09098767
  C      9.33817147      3.13438169      6.51027400
  H      7.52714666      2.57047274      8.67045786
  H      9.17043181      0.69898585      5.28806514
  H      7.33863741     -0.99429345      6.50144918
  H      6.51564865     -0.77945315      9.18901212
  H      6.12444159      0.91344994      9.58644300
  H      4.02612444     -0.00134829      8.82991265
  H      4.77941825     -0.89463576      7.50202250
  H      4.66504827      0.86214446      7.42277643
  H      8.73979245      3.82148219      5.90954084
  H     10.19511144      2.79618197      5.91837161
  H      9.66943154      3.64235092      7.41390444
 Cl     11.48366825      1.34125360      4.60430980
 Cl     -1.76042294      2.89855723      9.25254846
 Cl      6.85666910      2.71123080     10.89267193
 Cl      8.54641112      5.15722567     -1.41537708
 Cl      5.31871121      2.50914989      5.55112906

