#B3LYP/6-31+G(d) OPT FREQ

62, Energy =    -96.26619345 au

0 1
  N      3.69487834      1.12228926      2.98470450
  C      4.57579353      1.34323787      3.95117900
  N      4.90057888      0.18437020      4.51881498
  C      4.20807233     -0.80775022      3.89729169
  C      3.45029222     -0.21692401      2.93206637
  C      3.14560664      2.13658383      2.12108898
  C      3.68627145      1.99230889      0.70330641
  C      5.81043962     -0.02431535      5.60940136
  H      4.92793193      2.32574613      4.22289341
  H      4.36248671     -1.83444046      4.18653581
  H      2.74987107     -0.63555586      2.24000692
  H      2.04966357      2.05342583      2.11833684
  H      3.43912727      3.10041261      2.53899738
  H      3.25636613      2.76761771      0.07669839
  H      3.41793793      1.02539157      0.28403260
  H      4.77003232      2.09415808      0.69129283
  H      6.73119153      0.53236098      5.44183106
  H      6.01849267     -1.10102246      5.66820185
  H      5.36041980      0.30818742      6.54577843
  N      4.42146281      9.43752919      1.63575163
  C      4.70188922      8.41442896      0.83458440
  N      4.58715804      7.28627848      1.52794332
  C      4.22586089      7.59390897      2.80442834
  C      4.12613508      8.94768814      2.87153296
  C      4.44030865     10.83815351      1.28748854
  C      3.90639010     11.09392175     -0.11336878
  C      4.79674320      5.95749934      1.02559131
  H      5.00398956      8.47951519     -0.21328118
  H      4.10976281      6.83199061      3.55055794
  H      3.83142356      9.58058727      3.68097104
  H      3.80673607     11.34771924      2.01731804
  H      5.46971740     11.20679607      1.37708475
  H      4.00515747     12.15136247     -0.34642778
  H      2.85432613     10.82773630     -0.14629452
  H      4.44638257     10.51815071     -0.86112907
  H      4.95498306      5.28901051      1.87495425
  H      5.65934143      5.94772650      0.36238813
  H      3.92508300      5.62001446      0.46265730
  N      1.10897450      7.06263603      0.33058620
  C      1.29177823      6.97081448      1.64633141
  N      1.22668867      5.69385679      2.00570235
  C      0.99942455      4.94263346      0.89442083
  C      0.92049583      5.80252228     -0.15733317
  C      1.02493162      8.30123790     -0.41017670
  C      1.90973826      8.30779432     -1.64766174
  C      1.35562659      5.14553340      3.32547280
  H      1.42388294      7.83620400      2.28140608
  H      0.82080589      3.88044752      0.97587496
  H      0.74343901      5.60815673     -1.19408871
  H     -0.02108297      8.44439027     -0.70636597
  H      1.29186960      9.10130833      0.28746669
  H      1.80659354      9.26314431     -2.15421248
  H      1.61849368      7.52426536     -2.34429628
  H      2.96109500      8.18042523     -1.40598521
  H      2.40738797      4.97077197      3.57433961
  H      0.82966885      4.18972715      3.34467476
  H      0.93169257      5.83217890      4.05465260
 Cl     -0.17261234      2.18424687      2.03041572
 Cl      4.72761424      4.58399315      4.12208499
 Cl      5.49112894      8.64641371     -2.21079095
 Cl      5.84303631     -3.29622928      5.28991065
 Cl      1.33211523     10.09236013      2.45627405

