62
Energy =    -96.13013192 au
  N      9.00937914     10.85417056     -0.30302121
  C      8.88372371     10.52643154     -1.58977176
  N      8.81243294      9.20093408     -1.69322655
  C      8.98852504      8.66692721     -0.44958531
  C      9.10626992      9.69876262      0.42114655
  C      9.09734096     12.20327906      0.18470011
  C      7.70485530     12.77186132      0.44267018
  C      8.66271142      8.50727751     -2.93575548
  H      8.66111786     11.21026588     -2.38108355
  H      9.02061167      7.60906886     -0.28769693
  H      9.25381573      9.70697754      1.48152782
  H      9.69829810     12.20467385      1.09791250
  H      9.62121466     12.78414411     -0.57805793
  H      7.75040333     13.84944480      0.57562535
  H      7.27094184     12.31925498      1.33148086
  H      7.06062977     12.53905662     -0.40178139
  H      7.69755513      8.76838498     -3.37481488
  H      8.71438803      7.43365915     -2.76833802
  H      9.46425955      8.81967270     -3.60804401
  N     10.18012173      3.40396866     10.31801012
  C      9.46157501      2.93928660     11.39563058
  N     10.34302505      2.42931693     12.30052520
  C     11.60481332      2.62951752     11.83514752
  C     11.51945496      3.24044550     10.62997859
  C      9.65403989      4.19579018      9.24703207
  C      9.53284545      5.67445547      9.62770510
  C     10.02409390      1.80861141     13.55053405
  H      8.40181903      2.80802953     11.41008279
  H     12.44507519      2.30449838     12.43101174
  H     12.28746567      3.55498992      9.95489158
  H     10.31991177      4.09038538      8.38558318
  H      8.66877461      3.80336017      8.97551776
  H      9.13738307      6.24618348      8.79241778
  H     10.50796387      6.07264379      9.89699587
  H      8.86677626      5.78803585     10.47949125
  H      9.46804864      2.49524660     14.19197383
  H     10.97386453      1.53998015     14.03206479
  H      9.42544418      0.90912658     13.39213288
  N      5.45941038      8.71459857      1.39857826
  C      4.53902303      9.46567751      0.70978880
  N      4.50718467     10.71258325      1.28002982
  C      5.36457055     10.70749301      2.34555445
  C      5.93909820      9.48468871      2.42565553
  C      5.93003934      7.40317672      1.04404669
  C      5.84589916      7.15852174     -0.45792332
  C      3.96877596     11.86153357      0.61326797
  H      4.23693089      9.28747426     -0.29847945
  H      5.48862348     11.56605825      2.97507096
  H      6.64998529      9.10385803      3.13072490
  H      6.97040505      7.32911377      1.37778176
  H      5.34612643      6.64144421      1.58479953
  H      6.47279268      6.31495634     -0.73357584
  H      6.17741995      8.04559006     -0.99366620
  H      4.82440973      6.93970015     -0.75702120
  H      4.40336978     11.91204159     -0.39037818
  H      4.22052908     12.76159087      1.17006906
  H      2.88309220     11.77854696      0.52478919
 Cl    -19.30103425      4.72344959     11.94399680
 Cl     13.17702813      1.32799241     14.32735745
 Cl     11.23913018     10.85937761     -2.32655705
 Cl    -18.88780724      7.17411329     12.61636499
 Cl      5.96810302     10.51829039     -1.76421291
