#B3LYP/6-31+G(d) OPT FREQ

62, Energy =    -96.29557935 au

0 1
  N      4.82192806      8.49961388      7.09758628
  C      4.00724073      9.27366027      7.80522754
  N      4.02362538      8.87538137      9.07241060
  C      4.87401449      7.81760919      9.17778662
  C      5.37995327      7.58488540      7.93553028
  C      5.04445970      8.59898477      5.67814950
  C      6.26941085      9.45581281      5.37761303
  C      3.24742752      9.40995838     10.15116386
  H      3.36492508     10.02338725      7.37257069
  H      4.99356002      7.29172756     10.10248310
  H      6.02956521      6.81548350      7.56984085
  H      5.18607500      7.58235856      5.29895767
  H      4.14769290      9.04063972      5.23962689
  H      6.41734518      9.51156304      4.30323302
  H      7.15918734      9.02002582      5.82708278
  H      6.13558797     10.46495794      5.76299096
  H      3.88160464      9.97746408     10.83412856
  H      2.80830446      8.56209110     10.69562901
  H      2.47027302     10.05606830      9.75175584
  N      0.75607801      6.81250856      8.34877769
  C      1.16764262      5.64212798      8.82052614
  N      2.29386678      5.30105370      8.21519618
  C      2.62037460      6.28375540      7.33238416
  C      1.65622199      7.23763221      7.41588539
  C     -0.46717153      7.46763431      8.73181650
  C     -0.31681575      8.18758697     10.06931466
  C      3.09418229      4.14679708      8.49721412
  H      0.65926611      5.06141300      9.56158222
  H      3.48941913      6.19367553      6.70890471
  H      1.55489008      8.17414157      6.90004273
  H     -0.73129393      8.17284355      7.94089842
  H     -1.23960611      6.69631197      8.78993000
  H     -1.29150768      8.37191184     10.51239703
  H      0.19013557      9.13885517      9.93362986
  H      0.27549559      7.57997472     10.74922352
  H      3.45082847      4.20986898      9.52709057
  H      3.94075813      4.13625724      7.81347070
  H      2.50097784      3.24047018      8.37503047
  N      1.89282704      5.30337558      4.51997840
  C      0.70529300      5.83493680      4.78372000
  N      0.70702153      7.10373169      4.38925826
  C      1.92735712      7.38593542      3.85285289
  C      2.67244544      6.25037429      3.93264134
  C      2.29052024      3.95585144      4.83722618
  C      2.16139111      3.04883909      3.61859923
  C     -0.36195414      8.04471735      4.55619759
  H     -0.06700977      5.33106516      5.36042876
  H      2.17191021      8.36815223      3.50646817
  H      3.69648712      6.05711097      3.68624303
  H      3.33125117      3.99543488      5.17312872
  H      1.64224115      3.60686693      5.64303369
  H      2.47186478      2.04211266      3.88186032
  H      2.79490676      3.40536142      2.80925976
  H      1.12946973      3.01602060      3.27467687
  H     -0.83041200      8.26873474      3.59622748
  H      0.05608777      8.96824980      4.97052925
  H     -1.10163894      7.62665613      5.23453388
 Cl     -0.72368868      4.31321929      7.07551405
 Cl      5.35291881      5.23471437      5.55568774
 Cl     50.97286650    -12.68534459    -40.96193165
 Cl      2.60892553      6.40983194     11.17567221
 Cl      1.83291279     10.25895250      5.69169169

