62
Energy =    -96.27242184 au
  N      5.43013707      2.72386113      3.87051032
  C      5.56142974      3.93906502      4.39316074
  N      4.42584978      4.28166958      4.98912533
  C      3.54591606      3.25302163      4.85241374
  C      4.17629295      2.27605427      4.14390277
  C      6.39973410      2.03465103      3.05626459
  C      6.90980769      0.76372890      3.72261384
  C      4.15564998      5.53920533      5.62336860
  H      6.43530752      4.57633229      4.33907592
  H      2.56247880      3.29116983      5.27171113
  H      3.81212333      1.34180730      3.77181308
  H      5.89814687      1.79968065      2.11002623
  H      7.22108484      2.72797794      2.86756464
  H      7.63049532      0.27842586      3.07114597
  H      6.09862931      0.06500942      3.90577513
  H      7.39776810      0.97814759      4.66986632
  H      3.82155992      5.37016822      6.65526873
  H      3.36262370      6.05848151      5.08463849
  H      5.05937624      6.14230937      5.60302807
  N      6.07253456      1.91566465      7.77516410
  C      5.84991963      3.22036349      7.90429470
  N      6.94640747      3.87989223      7.55216382
  C      7.89156956      2.96644538      7.18246040
  C      7.34529213      1.72828061      7.32571807
  C      5.12304669      0.87705819      8.09456651
  C      4.92821683     -0.07598352      6.92420154
  C      7.11303863      5.30400410      7.59412641
  H      4.91302598      3.67734460      8.22837151
  H      8.86083036      3.26299188      6.83985932
  H      7.75547876      0.73317961      7.17664418
  H      5.50455841      0.31396573      8.95155726
  H      4.18885154      1.37208478      8.37127057
  H      4.16963089     -0.81092730      7.17883696
  H      5.86186810     -0.59913654      6.71812718
  H      4.60581650      0.46935918      6.04088847
  H      7.34648650      5.68971254      6.59399395
  H      7.93377583      5.56190258      8.26450696
  H      6.19191348      5.75389748      7.95563733
  N      4.72960435      7.61425945      1.84341678
  C      3.64590965      7.36768720      1.11753944
  N      3.54624180      6.05402032      0.93590907
  C      4.59262803      5.44832854      1.56575594
  C      5.33928702      6.43034188      2.13796321
  C      5.16003233      8.92674091      2.26015622
  C      5.21014724      9.02068196      3.78018852
  C      2.52825839      5.35476401      0.20377014
  H      3.00584487      8.15813788      0.72997489
  H      4.68913229      4.37741778      1.54483096
  H      6.23056575      6.37879160      2.73543090
  H      6.15581431      9.11300625      1.84732429
  H      4.45163939      9.64325309      1.83166049
  H      5.50075802     10.02556264      4.07277954
  H      5.93561370      8.31773156      4.18380424
  H      4.23316193      8.80568225      4.20614791
  H      1.54064474      5.65455620      0.55185722
  H      2.67386604      4.28308331      0.36539210
  H      2.60699868      5.57732594     -0.86080620
 Cl      3.10409765      4.56783785      8.65643646
 Cl      7.76547564      6.31384181      4.49565577
 Cl      8.15041464     -1.35871036      7.02771975
 Cl      3.70062121      2.30331784      1.11107534
 Cl      2.58009425     10.19610260      0.28888644
