62
Energy =    -96.25900976 au
  N      8.12560913      4.04189860      8.82436285
  C      8.03002918      2.98637236      8.02499587
  N      8.87514518      2.04905314      8.44495012
  C      9.52701044      2.51164111      9.54556992
  C      9.05537832      3.76525853      9.78462487
  C      7.35023956      5.25614967      8.70568304
  C      6.35234763      5.40041674      9.84560371
  C      9.09897764      0.75463489      7.86409420
  H      7.38117151      2.95370467      7.15803104
  H     10.26797343      1.89258940     10.03203983
  H      9.31145592      4.47172637     10.54655668
  H      8.03220868      6.10956411      8.70984988
  H      6.83298592      5.21664303      7.74499721
  H      5.93141408      6.40484061      9.81134869
  H      6.84298094      5.26966611     10.80828059
  H      5.55347633      4.66850493      9.75641904
  H      8.19010162      0.15543747      7.91378790
  H      9.89709625      0.26816552      8.43801586
  H      9.39569909      0.85680979      6.82091733
  N      4.52831046      7.25306133      6.32015421
  C      4.34119054      6.80419084      5.08328207
  N      5.51472718      6.70711093      4.47692611
  C      6.48147861      7.08809564      5.35542022
  C      5.86089212      7.43420890      6.51578339
  C      3.52181784      7.43710574      7.33639553
  C      2.92730314      6.09177581      7.73591510
  C      5.71228445      6.18102357      3.15837573
  H      3.40226675      6.61539372      4.59089160
  H      7.52121583      7.05737906      5.10426244
  H      6.22317952      7.81222599      7.45722487
  H      4.01826211      7.91219600      8.19084391
  H      2.74156096      8.09832030      6.94889238
  H      2.26298542      6.21893620      8.58575841
  H      3.72320244      5.40643100      8.01346576
  H      2.36926930      5.65552090      6.91013140
  H      6.50805742      6.72697694      2.65355586
  H      4.77517774      6.27984404      2.60673368
  H      5.98912472      5.12830193      3.24228049
  N      2.24688408      2.87184806      2.28369256
  C      1.70468681      1.77737850      1.75610428
  N      0.91757644      2.13228237      0.74674416
  C      0.96219058      3.49111029      0.62676346
  C      1.80053505      3.95591055      1.59103467
  C      3.20533046      2.92603269      3.36408321
  C      4.57066642      2.42491899      2.91558865
  C      0.15510821      1.22399710     -0.06174970
  H      1.82465759      0.73918426      2.05002153
  H      0.40595186      4.02108000     -0.11826925
  H      2.08644828      4.96962586      1.84654056
  H      3.28014359      3.96545502      3.68702782
  H      2.84421421      2.31731959      4.19538121
  H      5.27674935      2.58776336      3.72646170
  H      4.90793226      2.97663160      2.04039800
  H      4.53730925      1.36457297      2.67883823
  H      0.48339815      1.27712679     -1.09999738
  H     -0.90479520      1.47235280     -0.00814998
  H      0.32422090      0.21130893      0.33017995
 Cl      5.75019097      8.78311985      9.51005081
 Cl     11.46762928     -0.00210681     10.08073912
 Cl      1.18357231     -1.33206152      1.62283245
 Cl      6.09640876      3.90816190      5.66778400
 Cl      2.47889463      6.98567902      2.45220129
