#B3LYP/6-31+G(d) OPT FREQ

62, Energy =    -96.26159632 au

0 1
  N      2.65096024      8.52030697      0.94505613
  C      3.51764958      9.00100985      1.83240365
  N      2.95397187      9.00101460      3.03331764
  C      1.69032103      8.51122257      2.92113021
  C      1.49839801      8.20837026      1.60779673
  C      2.94246429      8.27813659     -0.45384838
  C      2.73254798      6.81580207     -0.81571476
  C      3.57056203      9.40544516      4.26209598
  H      4.53024614      9.33268832      1.59021580
  H      1.08449637      8.34109642      3.78972667
  H      0.64618460      7.79421544      1.11116341
  H      2.29749653      8.91183364     -1.06941627
  H      3.97978626      8.57286542     -0.61914469
  H      3.13299024      6.61812133     -1.81258896
  H      1.67672620      6.55429545     -0.81055686
  H      3.25097377      6.16759235     -0.11364270
  H      3.26529716      8.69421059      5.04105046
  H      3.23028377     10.40213173      4.54690926
  H      4.65049864      9.41500230      4.14017257
  N      5.60388860      5.59974720      1.68634210
  C      5.95050379      6.55045430      0.82153592
  N      6.18787267      5.99662456     -0.36139996
  C      5.98781814      4.65457596     -0.25086149
  C      5.61985156      4.40542211      1.03675385
  C      5.14647781      5.78896587      3.04169643
  C      3.62881413      5.63992493      3.09154334
  C      6.54740912      6.70545721     -1.55336713
  H      6.06147315      7.60824765      1.02818307
  H      6.09155293      3.99954972     -1.09034245
  H      5.41236579      3.49274859      1.56024913
  H      5.60396822      5.01247820      3.66331248
  H      5.46329097      6.77849640      3.37186278
  H      3.22728373      6.05482611      4.01169603
  H      3.36010358      4.58884718      3.03681004
  H      3.16554109      6.15347198      2.25272029
  H      5.78450212      6.53390403     -2.33184330
  H      7.50835796      6.35140602     -1.92658134
  H      6.61175852      7.76628301     -1.32345657
  N      6.21850120      3.25753455      8.18647457
  C      5.54968065      3.32027445      7.03840835
  N      4.37050416      3.88698724      7.25806296
  C      4.28633330      4.19834020      8.58310679
  C      5.45143718      3.80461035      9.16679462
  C      7.55032217      2.73906131      8.37971250
  C      8.58205417      3.67664528      7.76382304
  C      3.35663164      4.08134010      6.26279008
  H      5.87692605      2.98086620      6.06156662
  H      3.42379442      4.67902709      8.99536881
  H      5.80376549      3.81162048     10.18643850
  H      7.70053275      2.64825077      9.46381190
  H      7.61362714      1.75406904      7.91062161
  H      9.57873505      3.27625279      7.92469633
  H      8.52347082      4.65568930      8.23297702
  H      8.41275157      3.78423537      6.69409273
  H      3.04667145      5.12907893      6.21684854
  H      2.47983367      3.47744899      6.50082975
  H      3.76029123      3.77143810      5.30118141
 Cl      6.41602691      9.75709026      0.89575736
 Cl      7.25660400      2.87635815     11.70557034
 Cl      4.21441384      5.96845138     -3.72698359
 Cl      1.86389175      7.16189037      5.88333733
 Cl      5.86250862      2.63809782      3.92502663

