#B3LYP/6-31+G(d) OPT FREQ

62, Energy =    -96.26032934 au

0 1
  N      5.83503657      4.35396313      8.71909338
  C      5.08932238      3.48040005      8.04582796
  N      4.29659897      4.14177538      7.21295874
  C      4.54333938      5.47513144      7.35764329
  C      5.51457305      5.60875379      8.30348313
  C      6.85201020      4.04863747      9.69492764
  C      8.10282988      3.50843683      9.01055786
  C      3.32778330      3.52246996      6.35807281
  H      5.08016705      2.40013273      8.13126479
  H      4.02269186      6.21164699      6.78181770
  H      5.97615282      6.46460143      8.77157892
  H      7.07124851      4.98540255     10.22623420
  H      6.45571873      3.30622859     10.39162220
  H      8.86273857      3.29703515      9.75726952
  H      8.50012339      4.24667502      8.31789469
  H      7.88013443      2.59143378      8.46692750
  H      2.32282818      3.82209161      6.65554149
  H      3.43294948      2.44356900      6.46352528
  H      3.47118488      3.79863595      5.30818521
  N      2.05752394      0.53272035      4.74166421
  C      2.10774872     -0.40460383      5.67901422
  N      1.30922425     -0.06316872      6.68047769
  C      0.70056487      1.11059878      6.35592015
  C      1.16674388      1.48461875      5.13569437
  C      2.73551212      0.50935301      3.47291846
  C      1.84503294     -0.15260667      2.42435033
  C      1.12221621     -0.85740129      7.85540024
  H      2.73543539     -1.27049455      5.66712537
  H     -0.00606004      1.58246406      7.00762690
  H      0.98342859      2.35233192      4.53592434
  H      2.97483726      1.54355169      3.20176124
  H      3.65589566     -0.06264831      3.60541330
  H      2.41383537     -0.36821208      1.52344414
  H      1.01757051      0.50330634      2.16608658
  H      1.43888636     -1.07904939      2.82740384
  H      0.37796045     -0.39430358      8.49964677
  H      2.07542314     -0.93470326      8.38208222
  H      0.78835393     -1.84958637      7.54334265
  N      5.86055859      2.34548777      2.67813684
  C      5.98819638      3.66367947      2.77520317
  N      6.29495252      3.98356258      4.02583840
  C      6.39061491      2.83057923      4.74755971
  C      6.11747779      1.80440196      3.90472810
  C      5.59697791      1.63427077      1.45579511
  C      6.90557141      1.33257979      0.73057198
  C      6.60463699      5.31416734      4.45586384
  H      5.81576060      4.36211653      1.98452910
  H      6.63038168      2.81731866      5.79023050
  H      6.07324279      0.75313915      4.09707366
  H      5.05586275      0.71587756      1.69614882
  H      4.95455171      2.26857299      0.84145858
  H      6.71065326      0.99885899     -0.28514419
  H      7.46416372      0.56153031      1.25646283
  H      7.51428083      2.23543058      0.70606539
  H      6.88263040      5.31235743      5.50758991
  H      5.74092031      5.96209289      4.30157362
  H      7.43931542      5.67502937      3.84825276
 Cl      8.45970883      4.23831178      1.81064969
 Cl      4.34586059      0.42852770      7.48711127
 Cl      7.00496533      7.21151850     10.68326196
 Cl      3.17184184      3.95656346      3.06695493
 Cl      0.39333477     -2.37532202      4.88650840

