62
Energy =    -96.26085610 au
  N      4.35489212      9.21688339      5.83941109
  C      5.03210008      8.99556468      4.69883626
  N      4.15317126      8.87785060      3.69661455
  C      2.91402596      9.18984685      4.17979661
  C      3.03597116      9.41108393      5.50990260
  C      4.92931415      9.43646624      7.14398205
  C      4.97491193     10.92435023      7.47628397
  C      4.48122593      8.55003750      2.33964966
  H      6.04484946      8.65252871      4.65216521
  H      2.05228229      9.21774946      3.54629620
  H      2.30559198      9.68188637      6.24197439
  H      4.34098249      8.88416495      7.88462811
  H      5.94420119      9.03496030      7.13078783
  H      5.51851526     11.08335164      8.40307083
  H      3.97061643     11.32810409      7.58220688
  H      5.47862316     11.44661090      6.66574932
  H      3.75175930      9.00058665      1.66955322
  H      4.46789888      7.46061774      2.20522885
  H      5.47039199      8.94292267      2.11149248
  N      3.70842952      2.73703677      7.60651778
  C      3.85167867      2.36622773      6.32311194
  N      2.78082660      2.78611330      5.63579437
  C      1.88055729      3.30158082      6.53351639
  C      2.45947711      3.27854374      7.75794863
  C      4.63624740      2.43949652      8.66717577
  C      5.58238363      3.60644825      8.92757213
  C      2.57128702      2.56961419      4.23261759
  H      4.77968800      2.08591824      5.86903088
  H      0.91119002      3.63376664      6.22516024
  H      2.11740921      3.63022333      8.70928627
  H      4.06083535      2.22935452      9.57125507
  H      5.17860470      1.53550408      8.37873498
  H      6.27597873      3.34430767      9.72172826
  H      5.01372621      4.47956477      9.24251288
  H      6.15510600      3.85111492      8.03523476
  H      3.12904156      3.29963531      3.63725787
  H      1.51202507      2.66623475      4.00617374
  H      2.90413209      1.56261204      3.98255294
  N      1.64087693      6.59732760      6.97887300
  C      2.94781527      6.34731041      7.06598676
  N      3.41186819      6.06701785      5.84846650
  C      2.38370720      6.15066666      4.96092902
  C      1.27204368      6.48367910      5.66840224
  C      0.79385089      6.90100328      8.10486481
  C      0.45368581      8.38595637      8.17061113
  C      4.75597479      5.69204568      5.51279730
  H      3.46195583      6.29702499      8.02126027
  H      2.55430803      5.94130781      3.91592621
  H      0.26458256      6.64032108      5.34280384
  H     -0.11983303      6.30765915      8.02303846
  H      1.34986728      6.60475179      9.00251793
  H     -0.23269135      8.56292695      8.99362571
  H     -0.01297642      8.72471843      7.24647011
  H      1.35467448      8.96531036      8.35263908
  H      4.79106679      5.50390073      4.43402406
  H      5.03560582      4.78893175      6.05318303
  H      5.45145207      6.48618994      5.77985102
 Cl      3.96543246      5.19642835      2.34612504
 Cl      3.31019482      6.06750807     10.11896834
 Cl    -31.11408059     20.69886940     -5.03714199
 Cl      6.03112691     11.14720973      4.19432685
 Cl      3.51760564     -0.01953207      6.44997770
