#B3LYP/6-31+G(d) OPT FREQ

62, Energy =    -96.24946079 au

0 1
  N      3.47603566     10.07489992      3.18974047
  C      4.71615645      9.62057004      2.96573387
  N      4.81159270      8.38132746      3.44552182
  C      3.57894606      7.99094549      3.88276192
  C      2.74290324      9.04352408      3.72503834
  C      2.94577777     11.34379170      2.76477850
  C      2.14090135     11.19172988      1.47794975
  C      5.96787778      7.53448782      3.42126577
  H      5.54417565     10.23106709      2.67224644
  H      3.43086889      7.02593402      4.32428820
  H      1.70329110      9.14960620      3.95456153
  H      2.32507336     11.74879893      3.57233943
  H      3.78892037     12.01560024      2.59207681
  H      1.85312823     12.16661225      1.09380801
  H      1.24690751     10.59772987      1.65064766
  H      2.76443164     10.68052647      0.74648548
  H      6.02378725      7.01288083      2.46432871
  H      5.87154904      6.81626783      4.23923677
  H      6.86821776      8.13227511      3.55069116
  N      4.21560346      1.88762143      5.90936248
  C      4.90924578      1.84438854      7.04377323
  N      4.56459051      0.75548132      7.72094086
  C      3.64788853      0.06122590      6.99439824
  C      3.42886647      0.77012700      5.85655378
  C      4.35214341      2.87521161      4.86815159
  C      5.41252602      2.43513907      3.86378068
  C      5.11171589      0.30082540      8.96578028
  H      5.59988693      2.59605241      7.36486382
  H      3.20984696     -0.83989833      7.39581145
  H      2.78344704      0.57246085      5.02577960
  H      3.37971531      2.99563465      4.38156024
  H      4.63124278      3.82658391      5.32813656
  H      5.66837011      3.25789959      3.20291678
  H      5.05442430      1.59775472      3.26783492
  H      6.30193135      2.11709537      4.40377390
  H      6.13632354     -0.03685357      8.80197806
  H      4.49106411     -0.52697383      9.32109542
  H      5.11771362      1.11027915      9.69494196
  N      8.56641202      6.57445047      8.44124469
  C      7.76822778      6.04349787      7.51730232
  N      8.42981697      5.09772991      6.86400294
  C      9.68526908      5.01852919      7.38953924
  C      9.77049591      5.94640264      8.38326036
  C      8.22390973      7.60572672      9.38886813
  C      7.35428159      7.03709446     10.50416358
  C      7.89718596      4.31767788      5.78631042
  H      6.74550891      6.31323614      7.30135011
  H     10.40267435      4.31043388      7.03039128
  H     10.57664423      6.26838839      9.02295385
  H      9.17084169      7.99017823      9.79420746
  H      7.68978745      8.40080550      8.86288645
  H      7.11135367      7.82334156     11.21308809
  H      7.89204387      6.25290283     11.03074718
  H      6.43010957      6.62532450     10.10186916
  H      8.51463559      4.43584993      4.89649403
  H      6.88637565      4.66418542      5.58209176
  H      7.86675667      3.24986645      6.05108903
 Cl     11.38372935      8.09440602     10.22255933
 Cl      2.61929776     -2.01476000      9.27100989
 Cl      4.79571652      6.05142997      6.21170111
 Cl      4.71852691      9.25526364      0.47800261
 Cl      7.51308358      1.10479137      6.36069368

