62
Energy =    -96.28656597 au
  N      4.34977290      8.72241492      8.65806652
  C      4.91400876      7.98021327      7.70549446
  N      4.83610524      6.70253974      8.05564292
  C      4.21669373      6.62321788      9.26532934
  C      3.90617585      7.89180732      9.64786439
  C      4.21223189     10.15859846      8.64164044
  C      2.74858017     10.57085237      8.74310743
  C      5.28362916      5.59528204      7.25908245
  H      5.32062396      8.30606111      6.75268561
  H      4.02119808      5.68060013      9.73144345
  H      3.37284860      8.26485517     10.50713458
  H      4.76682667     10.57557409      9.48862780
  H      4.65751361     10.51858716      7.71040093
  H      2.66819118     11.65231125      8.68259162
  H      2.32914604     10.24243807      9.69393751
  H      2.17513621     10.13171350      7.93016958
  H      4.51202700      4.82277535      7.27560022
  H      6.20867095      5.18440876      7.66522540
  H      5.45900647      5.95041709      6.24324515
  N     -0.56000114      7.92773947      8.30347519
  C      0.10524885      7.72074078      9.43865536
  N      0.35168282      6.42321476      9.56058307
  C     -0.16928114      5.78234585      8.47835445
  C     -0.74561314      6.72367543      7.68453275
  C     -1.07928927      9.19257464      7.84223142
  C     -0.57901905      9.54194267      6.44859715
  C      1.04117504      5.80025979     10.65011295
  H      0.45322415      8.45772602     10.15525968
  H     -0.06217849      4.72837434      8.34375798
  H     -1.21235603      6.63927630      6.71358071
  H     -2.17144963      9.12566334      7.82043422
  H     -0.78239957      9.95275408      8.56882766
  H     -1.06157715     10.45477911      6.11131224
  H     -0.81867536      8.74127579      5.74910857
  H      0.49620366      9.70180612      6.45514078
  H      1.54652535      6.56943554     11.23213421
  H      1.75530556      5.08629636     10.23783558
  H      0.33457136      5.26409642     11.28594567
  N      1.19882116      4.70077290      4.71088620
  C      1.71871175      5.64111330      5.49210711
  N      1.95586719      6.72644618      4.77042644
  C      1.57135508      6.47877787      3.49306022
  C      1.08982193      5.20707976      3.45480753
  C      0.74660932      3.40941500      5.17032488
  C     -0.77651047      3.31521208      5.06885739
  C      2.54203403      7.94492085      5.23801441
  H      1.93431907      5.49051536      6.53813303
  H      1.63866076      7.21555300      2.72026128
  H      0.66934390      4.64735981      2.64418784
  H      1.23117194      2.62996375      4.56879573
  H      1.08346346      3.31263251      6.20670155
  H     -1.16196591      2.58367177      5.77297538
  H     -1.08891072      3.03201640      4.06406919
  H     -1.21223512      4.28804202      5.29298144
  H      2.04974484      8.78963361      4.75967780
  H      3.61726240      7.97334489      4.98941306
  H      2.42309311      8.00703421      6.31758647
 Cl      2.46761950      3.95060761      8.18618935
 Cl      5.76721325      7.97572503      4.68381896
 Cl     62.94906485    -17.71096068    -54.37524254
 Cl      1.70474828      9.18669896     11.75925165
 Cl     -1.41708119      6.77325669      4.54034268
