#B3LYP/6-31+G(d) OPT FREQ

62, Energy =    -96.15805752 au

0 1
  N     -0.37198649      3.15021807      3.11673785
  C      0.92202401      3.06031917      3.46530758
  N      1.64486246      3.81350749      2.62750061
  C      0.78270370      4.41868607      1.75287404
  C     -0.47364979      4.00557047      2.06413219
  C     -1.46333900      2.52763119      3.81826061
  C     -1.93334928      3.40753940      4.97176308
  C      3.04601221      4.03491377      2.74796564
  H      1.36944236      2.40395458      4.19576257
  H      1.11836833      5.09703090      0.99719256
  H     -1.41798936      4.30453907      1.66067124
  H     -2.28268990      2.38172560      3.11084310
  H     -1.11962545      1.55311272      4.17872165
  H     -2.78914515      2.95482194      5.46486063
  H     -2.22213189      4.38242960      4.57852176
  H     -1.13267578      3.54138598      5.69495094
  H      3.22114967      5.04056594      3.21757645
  H      3.51974353      4.01628042      1.76742965
  H      3.46229144      3.25308188      3.38490304
  N      3.08795476      7.76024008      2.66445930
  C      2.82137098      6.91521330      3.75998932
  N      1.42400599      6.83798869      3.82330776
  C      0.89532052      7.41839456      2.70899326
  C      1.89988958      7.96421554      1.98862868
  C      4.39236131      8.06379056      2.16877828
  C      4.98532302      6.94765708      1.30023683
  C      0.66699326      6.18724006      4.84274261
  H      3.36818771      7.10471028      4.67804979
  H     -0.16153809      7.37874711      2.52837304
  H      1.87171309      8.51284543      1.06906273
  H      4.32580811      8.98543454      1.58074094
  H      5.05404941      8.24449107      3.02280989
  H      5.94608984      7.25904921      0.89831194
  H      4.31574381      6.72115760      0.47366796
  H      5.12724456      6.04855970      1.89293650
  H      1.04519600      5.17547452      5.02377261
  H     -0.37234022      6.13868140      4.51019406
  H      0.71827886      6.74790772      5.78164191
  N      0.98406632      2.32329405      7.52223593
  C      0.04495629      3.06609933      8.11294351
  N      0.44381308      4.34584356      8.10551168
  C      1.71821103      4.38843006      7.60180848
  C      2.05247374      3.12939895      7.23400538
  C      1.00667818      0.89033206      7.35451412
  C     -0.38966098      0.29575736      7.27496059
  C     -0.26859916      5.40186379      8.76141537
  H     -0.95548935      2.75521055      8.32201458
  H      2.27628286      5.29963351      7.54938290
  H      2.91789048      2.73551472      6.73774280
  H      1.58639851      0.68966024      6.44633956
  H      1.53695343      0.45580344      8.20874944
  H     -0.31552384     -0.76266795      7.03980500
  H     -0.97651836      0.78370420      6.49990571
  H     -0.89982234      0.40246579      8.22914957
  H     -1.20633696      5.61003287      8.24282069
  H      0.34372802      6.30036008      8.77920030
  H     -0.48106065      5.07769750      9.78406011
 Cl      0.21497585      2.61669559     10.54809343
 Cl      3.18352205      1.24524704      4.74946248
 Cl     27.51436599     22.58956657      3.01361067
 Cl     -2.31273565      6.26883997      3.14627303
 Cl     25.87141812     24.55886262      2.68539670

