#B3LYP/6-31+G(d) OPT FREQ

62, Energy =    -96.27311406 au

0 1
  N      7.51835630      6.42057488      1.07676466
  C      7.38097796      5.63002953      2.13758577
  N      7.41470467      6.37423849      3.24122251
  C      7.66086024      7.66570558      2.87613609
  C      7.72275282      7.69470046      1.52238345
  C      7.55457544      5.99828166     -0.29715544
  C      8.99692741      5.87603556     -0.77569702
  C      7.39659451      5.88600901      4.58830961
  H      7.13534042      4.58975582      2.10049762
  H      7.73079958      8.44062525      3.61155255
  H      7.87286348      8.50902119      0.84483603
  H      7.05603178      5.02921641     -0.35930361
  H      6.98426686      6.72143772     -0.88655148
  H      9.03279406      5.40692015     -1.75521952
  H      9.54707140      5.26597883     -0.06135973
  H      9.47014795      6.85382071     -0.83231237
  H      8.37231087      5.45460465      4.82276790
  H      6.63674866      5.11302477      4.69580920
  H      7.17933995      6.71624143      5.25969071
  N      3.36518223      8.41015986      3.48984091
  C      3.43556672      9.43524368      4.33163340
  N      2.67509955     10.42583414      3.87384425
  C      2.09759963     10.01558362      2.70958281
  C      2.52856621      8.74478408      2.47160644
  C      4.09018193      7.17395542      3.63006934
  C      3.19368744      6.06906907      4.17509618
  C      2.54791478     11.73701003      4.43890364
  H      4.11235987      9.46095895      5.17502861
  H      1.47669804     10.66658922      2.13056873
  H      2.36481014      8.08991361      1.64038875
  H      4.46945332      6.91141226      2.63810981
  H      4.92011569      7.37214752      4.31179724
  H      3.76085790      5.14583784      4.24700820
  H      2.34443090      5.90050773      3.51576902
  H      2.82694663      6.32791505      5.16662909
  H      1.52199217     11.91813994      4.76204358
  H      2.81446942     12.46200654      3.65993420
  H      3.22440062     11.83131731      5.28464911
  N      5.49831179     10.57458775     -0.35776626
  C      5.16885164     10.51465304      0.92736264
  N      6.19991947     10.90671147      1.66609662
  C      7.21474952     11.24635557      0.82318098
  C      6.77601683     11.03637133     -0.44648607
  C      4.61528498     10.25754395     -1.45062926
  C      3.71024849     11.44192488     -1.76723648
  C      6.18290400     11.11414818      3.08443434
  H      4.23408233     10.14677855      1.29201620
  H      8.15796655     11.60504103      1.18143248
  H      7.27017880     11.17709685     -1.38614204
  H      5.22557940      9.98552907     -2.31565607
  H      4.03279889      9.38536890     -1.14188544
  H      2.92394734     11.14098698     -2.45351423
  H      4.27947667     12.25406434     -2.21600312
  H      3.26014069     11.81100423     -0.84875718
  H      6.03722545     10.18224572      3.63510974
  H      5.36480281     11.79965140      3.31240366
  H      7.12465621     11.55967530      3.39547250
 Cl      4.68741902      7.59588431      0.39389190
 Cl      6.16980982      8.96973752      5.76122424
 Cl      9.71283178      4.52409202      2.34451688
 Cl      3.61360821     12.72353382      1.52923793
 Cl    -19.51526813    -20.46129053      1.39032505

