62
Energy =    -96.27311377 au
  N      8.18606468      3.00828169      4.77613714
  C      7.20074578      2.68710027      3.94635772
  N      7.51453092      1.57368234      3.29875876
  C      8.73633447      1.16453885      3.74309985
  C      9.16096763      2.06483778      4.66860081
  C      8.13893521      4.10906165      5.70416295
  C      7.32251973      3.72689444      6.93457999
  C      6.65000575      0.85659872      2.40678613
  H      6.30761798      3.25912274      3.81039556
  H      9.21753344      0.28172326      3.37792290
  H     10.10381346      2.11481259      5.17927261
  H      9.16174587      4.36546326      5.98401065
  H      7.68725093      4.95698450      5.18349188
  H      7.12670112      4.60493295      7.54393327
  H      7.85990783      2.99457236      7.53319950
  H      6.37598168      3.28631967      6.63000107
  H      5.73445462      0.61278814      2.94851595
  H      7.13981912     -0.06246860      2.09355632
  H      6.39786258      1.44752995      1.52185564
  N      4.43577774      4.27798967      1.78420330
  C      3.89725047      3.07338948      1.63537863
  N      3.42446038      2.66124140      2.80830328
  C      3.66459423      3.63282726      3.73146251
  C      4.30121236      4.65011615      3.08594422
  C      5.04708628      5.05161003      0.73637519
  C      4.10690127      6.14664413      0.24625636
  C      2.83338088      1.38773173      3.09442381
  H      3.97479064      2.49830140      0.72603396
  H      3.42355986      3.49678589      4.76468978
  H      4.70381499      5.57201946      3.45236315
  H      5.96495506      5.48402265      1.14847333
  H      5.28992583      4.35602501     -0.06956386
  H      4.59058246      6.71015535     -0.54616006
  H      3.85795682      6.83207042      1.05388747
  H      3.18738739      5.71649066     -0.14700558
  H      1.77201761      1.49896285      3.32092146
  H      3.35146192      0.98169944      3.97263900
  H      2.96258032      0.72835848      2.23983739
  N     10.75288959      4.33297382      1.90580713
  C      9.87791080      4.86324394      1.05815914
  N      9.20061047      3.88981381      0.46083348
  C      9.63299683      2.70266695      0.97502537
  C     10.60730708      2.97988424      1.88309198
  C     11.68565850      5.05092541      2.74035938
  C     11.03515404      5.45844056      4.05658120
  C      8.21577945      4.06231862     -0.56632627
  H      9.74654005      5.90984738      0.87386833
  H      9.21239968      1.77276011      0.65369096
  H     11.19783501      2.36786955      2.54926826
  H     12.51355834      4.37239925      2.95878428
  H     12.03808996      5.92485610      2.18540699
  H     11.61278104      6.24478684      4.53423027
  H     11.02161826      4.58820672      4.70533355
  H     10.02091061      5.80915448      3.88550121
  H      7.75342944      5.03941240     -0.45253581
  H      7.44299201      3.29104312     -0.49094708
  H      8.68237107      3.99310599     -1.55167493
 Cl     -8.87011544     34.86318124     -2.31880180
 Cl      5.61642083      1.93927770     -0.71747413
 Cl     12.46065299      2.22509418      4.39856672
 Cl      7.69590240      5.61704344      2.66740055
 Cl      5.05826375      1.40758563      5.39919407
