62
Energy =    -96.11731888 au
  N      3.00314764      8.58471883      1.78649002
  C      1.96349163      9.43848625      1.70513789
  N      2.08231027     10.39288275      2.65949375
  C      3.21465363     10.15418343      3.35492748
  C      3.80042814      9.03503722      2.81975693
  C      3.16992126      7.44132651      1.07428246
  C      4.51759859      6.78610111      1.07102698
  C      1.11740565     11.43436822      2.86489924
  H      1.13383487      9.40082669      1.02222365
  H      3.54227822     10.77291723      4.16826648
  H      4.70409734      8.53811414      3.10668370
  H      1.84513151      6.11906642      2.33390189
  H      2.58493536      7.40120266      0.16837034
  H      4.52209818      5.97506015      0.34391156
  H      4.75986252      6.35463313      2.04918697
  H      5.33240861      7.47735221      0.81171078
  H      0.32571328     11.30653617      2.11979198
  H      1.58106899     12.41537063      2.74553422
  H      0.68703212     11.36278406      3.86607194
  N      0.35287550      1.10729458      0.17418199
  C     -0.27570892      1.39949871      1.32663351
  N     -1.24193475      0.49746115      1.52581397
  C     -1.23444252     -0.38991596      0.49619853
  C     -0.23619823     -0.01767082     -0.34674281
  C      1.51240440      1.77362344     -0.35884467
  C      2.78103285      0.96841822     -0.08260883
  C     -2.15004233      0.43480150      2.63463686
  H     -0.05260727      2.23020709      1.97682350
  H     -1.90770582     -1.24041448      0.52772239
  H      0.09218618     -0.45170142     -1.26739715
  H      1.37920857      1.90252978     -1.43704655
  H      1.58389372      2.76120791      0.10539595
  H      3.64440612      1.48867182     -0.48762403
  H      2.71710165     -0.01520412     -0.54170111
  H      2.92290837      0.83883687      0.98836172
  H     -1.61993174      0.60978855      3.56960056
  H     -2.59885966     -0.56817090      2.62545398
  H     -2.93627338      1.18136428      2.52688482
  N     -0.13374942      5.36460624      2.42071017
  C      1.29425269      5.16617235      2.29060725
  N      1.63120318      4.28428263      3.39488670
  C      0.41771307      3.66213810      3.76454350
  C     -0.60698981      4.31591271      3.20094955
  C     -0.89009310      5.93357770      1.33677028
  C     -1.09926376      4.98789186      0.14523807
  C      2.83080288      3.51092411      3.24345190
  H      1.56233367      4.69040490      1.30667531
  H      0.41451831      2.88244780      4.50158347
  H     -1.66079918      4.17810910      3.34451411
  H     -1.86372470      6.23153209      1.73489958
  H     -0.37453619      6.83950703      1.00703479
  H     -1.69661664      5.49036685     -0.61225508
  H     -1.61840422      4.07911763      0.45899170
  H     -0.14350301      4.71356476     -0.30003620
  H      2.82762176      2.87945900      2.33760757
  H      2.96314787      2.87370505      4.11657314
  H      3.67774472      4.19479174      3.17228960
 Cl     23.51201002     -4.56478973     15.88189361
 Cl     -3.05642616     -2.56208058      1.79185295
 Cl     23.72976109     -4.24453370     13.88360344
 Cl     -0.89512389     10.33823197      0.40764320
 Cl     24.01053544     -3.86202694     11.43304354
