#B3LYP/6-31+G(d) OPT FREQ

62, Energy =    -96.27166484 au

0 1
  N      8.71161885      2.77140274      2.04379177
  C      8.82804501      1.61963228      2.69323519
  N     10.04206899      1.12161176      2.47681221
  C     10.72616804      1.97805526      1.67216034
  C      9.89016317      3.01754759      1.40167568
  C      7.55218597      3.63345418      2.08765995
  C      7.77939802      4.81228654      3.02260222
  C     10.58065409     -0.10897374      2.98487760
  H      8.02508310      1.18018625      3.26897583
  H     11.74076164      1.74482378      1.37952615
  H     10.03988603      3.89438531      0.80674781
  H      7.33598586      3.99248266      1.07967301
  H      6.71444012      3.02839328      2.43989788
  H      6.88359278      5.43419451      3.01287769
  H      8.62859109      5.41112814      2.69885430
  H      7.96009825      4.46350293      4.03693511
  H     11.59945764     -0.21141239      2.58998823
  H      9.96808897     -0.95034261      2.66198423
  H     10.60588752     -0.08857004      4.07421496
  N      0.91821356      1.48804833      6.39840541
  C      2.01645490      1.76370572      7.09482726
  N      3.07174490      1.31840060      6.42248978
  C      2.63531789      0.73726852      5.26898536
  C      1.27865481      0.84610124      5.25348143
  C     -0.43888643      1.80389220      6.77796975
  C     -0.60843843      3.29236388      7.05322699
  C      4.43344287      1.42422232      6.86276351
  H      2.08912653      2.35236369      8.00269967
  H      3.32130037      0.32510853      4.55763480
  H      0.52222964      0.53887497      4.54698191
  H     -1.08243129      1.47672127      5.94975000
  H     -0.69026217      1.22995041      7.67574768
  H     -1.62000366      3.47934207      7.40319836
  H     -0.44830912      3.86425423      6.14340612
  H      0.09356450      3.63227397      7.81169749
  H      4.52457793      2.28790990      7.51838790
  H      5.08688738      1.51989936      5.99398207
  H      4.72038938      0.52628430      7.41389359
  N      3.88606890      4.51957598      5.52776513
  C      4.28809816      3.99496118      4.37557004
  N      3.23080366      3.55885842      3.70298121
  C      2.11323538      3.86322526      4.42169972
  C      2.52490053      4.46722078      5.56822774
  C      4.71967034      5.14762861      6.52085235
  C      4.82672823      6.64292587      6.23772870
  C      3.29096349      2.96550245      2.40095154
  H      5.30363236      3.84974178      4.07369243
  H      1.13154449      3.62108462      4.06841634
  H      1.98552432      4.82474417      6.42089146
  H      4.26777883      4.95926042      7.50089315
  H      5.70703756      4.68312642      6.47318874
  H      5.60183637      7.08869140      6.85497798
  H      3.88135925      7.13552657      6.44999555
  H      5.06737111      6.79459125      5.18722716
  H      2.31756369      2.55954520      2.13637726
  H      4.03923040      2.17158990      2.40990560
  H      3.59418659      3.73141760      1.68356240
 Cl      4.67891380      6.13797454      2.72873297
 Cl     13.48387236      0.33948525      1.45922213
 Cl     -1.67930979      0.53432205      3.96071387
 Cl      5.87009426      1.11487103      3.81139365
 Cl      2.72017435      4.06554194      9.11406061

