62
Energy =    -96.26981735 au
  N      7.82719494      7.25018357      3.90000268
  C      8.18815301      8.18050986      4.77662603
  N      7.09510846      8.73750058      5.28939556
  C      6.00504937      8.13930661      4.73257762
  C      6.46775607      7.20003180      3.86192043
  C      8.72660800      6.44815538      3.11041133
  C      9.05760337      5.14146769      3.82459663
  C      7.04079048      9.82214085      6.22772134
  H      9.20497421      8.49885916      4.92449492
  H      5.01724041      8.48936830      4.96794428
  H      5.95609982      6.54062154      3.19012284
  H      8.22724187      6.25315235      2.15907858
  H      9.62692724      7.04928124      2.95080117
  H      9.73763259      4.55176752      3.21714007
  H      8.15692515      4.55551555      3.99869203
  H      9.53824772      5.33527088      4.78108159
  H      7.07601459      9.44666746      7.25180217
  H      6.09387982     10.35299192      6.07542486
  H      7.88045298     10.49301508      6.06072117
  N      5.41001535      9.82555514      1.88637414
  C      6.18402457      9.26500302      0.96002199
  N      7.45678623      9.49982377      1.25752427
  C      7.50197966     10.24181990      2.39754005
  C      6.21515801     10.44353191      2.79530011
  C      3.96823428      9.77560279      1.96912976
  C      3.45531710      8.34274260      1.89016816
  C      8.59666108      9.02367394      0.52959445
  H      5.85760470      8.67711980      0.12584308
  H      8.44428755     10.50477658      2.84001324
  H      5.78557027     10.93514117      3.65026882
  H      3.69679405     10.21249590      2.93781741
  H      3.54319547     10.38417463      1.16237152
  H      2.37117843      8.36077087      1.83028244
  H      3.74326979      7.78650149      2.78002143
  H      3.84297936      7.82277135      1.01575292
  H      9.45229742      9.01170762      1.20965389
  H      8.81306377      9.67580773     -0.31774060
  H      8.38085951      8.01880178      0.17043230
  N      8.26244105      2.19253190      1.16839816
  C      8.18050298      3.46996204      0.80107925
  N      9.34730089      3.83919772      0.26786143
  C     10.19078094      2.76044375      0.30310962
  C      9.50655567      1.72822754      0.86521405
  C      7.20978774      1.38420635      1.73563203
  C      6.11571071      1.12842450      0.70580344
  C      9.64102358      5.14782269     -0.24415908
  H      7.33246030      4.12929109      0.89144555
  H     11.19424165      2.80889050     -0.07031781
  H      9.76390099      0.70058073      1.10346662
  H      7.67617004      0.43273556      2.03396073
  H      6.79758028      1.89781241      2.60948205
  H      5.35393936      0.48973563      1.14431381
  H      6.53736859      0.61891589     -0.15816080
  H      5.65433300      2.06303475      0.38613646
  H      8.70763517      5.71146771     -0.28075112
  H     10.06740707      5.07384071     -1.24444469
  H     10.34611710      5.66736676      0.40672769
 Cl      6.49091533      6.23159961      0.46931482
 Cl    -22.06027620     -3.95015589     26.86881597
 Cl      9.25779566     -1.18644152      2.00667311
 Cl     10.60033542      9.27499999      3.20025810
 Cl      4.04414497     10.77895889      5.20188485
