62
Energy =    -96.29770477 au
  N      3.80131036      9.16985832      7.79466121
  C      4.12782584      8.11113508      8.52979285
  N      4.75218989      7.22870490      7.76057098
  C      4.84134314      7.73887634      6.50220819
  C      4.24480322      8.96167002      6.52357283
  C      3.08099058     10.33125810      8.24938004
  C      4.03652565     11.46717667      8.59943753
  C      5.18133129      5.92718326      8.18317184
  H      3.81158421      7.89892348      9.54179640
  H      5.26034426      7.17151462      5.69604850
  H      4.04374322      9.66239845      5.73990978
  H      2.40700545     10.63271834      7.43848260
  H      2.49565087     10.04344974      9.12418944
  H      3.46852132     12.33169824      8.93057907
  H      4.62111107     11.75228186      7.72791258
  H      4.71544103     11.16775462      9.39638260
  H      5.07214743      5.23582031      7.34553140
  H      4.55711911      5.62021906      9.02205003
  H      6.22636207      5.94854450      8.49614843
  N      0.51631353      7.21261794      8.00759837
  C      0.58560493      5.97671278      8.48057728
  N      1.51112280      5.30703991      7.80932246
  C      2.04964091      6.13742859      6.87508795
  C      1.42145262      7.33580164      6.99774353
  C     -0.38911069      8.24691472      8.43804012
  C     -0.32870809      8.43646296      9.95069493
  C      1.93881679      3.96351721      8.06636457
  H     -0.00416518      5.58165779      9.28066741
  H      2.83209334      5.80699696      6.21663027
  H      1.53280717      8.25451368      6.45166160
  H     -0.10010157      9.15934636      7.91212014
  H     -1.39943026      7.96234348      8.12589759
  H     -0.70989561      9.41669178     10.22453458
  H      0.69784319      8.33988552     10.29739366
  H     -0.92147352      7.68061755     10.45889905
  H      2.34988708      3.90877541      9.07613336
  H      2.70754919      3.69952723      7.34254002
  H      1.09390208      3.27922886      7.98303010
  N      1.16058357      5.25601631      4.03858077
  C      0.01168112      5.79107987      4.43938978
  N      0.07026248      7.10694467      4.27734719
  C      1.28268961      7.42383741      3.74666034
  C      1.96874402      6.25864015      3.59440153
  C      1.50856687      3.85913272      4.08774082
  C      1.29645733      3.19385127      2.73212742
  C     -0.95265504      8.03102560      4.67270054
  H     -0.78897128      5.28999108      4.96703797
  H      1.57332381      8.44191145      3.58394756
  H      2.97124282      6.06796679      3.27193236
  H      2.56223030      3.79710166      4.38561674
  H      0.88401888      3.38528727      4.84674971
  H      1.57429045      2.14564139      2.79320904
  H      1.91515208      3.67059830      1.97543591
  H      0.25303895      3.26251711      2.42846895
  H     -1.60652239      8.26518923      3.83097949
  H     -0.47616041      8.94939062      5.02145438
  H     -1.53617497      7.57187844      5.46992666
 Cl     -1.77303897      5.34814226      6.90406417
 Cl      4.56482353      4.67060424      5.09028532
 Cl     56.95140849    -15.55643657    -49.75485563
 Cl      2.64359296      6.37989292     10.60022102
 Cl      1.39896947     10.36880862      5.39362366
