#B3LYP/6-31+G(d) OPT FREQ

62, Energy =    -96.26594039 au

0 1
  N      7.27699520      6.19061069      1.88313387
  C      8.58237416      6.36270548      1.70488636
  N      8.86823346      6.16517916      0.42098752
  C      7.72000770      5.86200278     -0.24244619
  C      6.71749613      5.88204416      0.67795467
  C      6.58212284      6.37341991      3.13250374
  C      6.18776294      7.83043467      3.33743368
  C     10.16094852      6.23945072     -0.19959638
  H      9.27352715      6.62305132      2.50530175
  H      7.74613661      5.66800609     -1.30463478
  H      5.66851229      5.69703271      0.57308523
  H      5.69088102      5.74438475      3.15434594
  H      7.24699938      6.06520817      3.93959676
  H      5.54292808      7.87899563      4.20952010
  H      5.63918071      8.20940181      2.47630618
  H      7.07192502      8.44185664      3.50199284
  H     10.59598824      7.22566547     -0.04416284
  H     10.02727215      6.04929482     -1.27124029
  H     10.82693513      5.49208021      0.23007660
  N      1.56000692      4.66103164      7.07802379
  C      1.97291652      5.90618640      7.28663142
  N      2.77527268      5.92603875      8.34203897
  C      2.85283510      4.66444353      8.85055741
  C      2.09449304      3.86935714      8.05454189
  C      0.68080840      4.24905468      6.01910172
  C      1.48065594      3.76725663      4.81159522
  C      3.42450166      7.07591358      8.90013095
  H      1.75841375      6.74094218      6.65385200
  H      3.48192036      4.44898802      9.69251250
  H      1.88895136      2.81915339      8.10735144
  H      0.02712093      3.45927113      6.40089717
  H      0.06364535      5.11348666      5.76578876
  H      0.84364475      3.69821717      3.93383531
  H      1.92029615      2.79046268      5.00543812
  H      2.29018496      4.46738064      4.61480006
  H      3.85710209      7.67335558      8.09749574
  H      4.20692265      6.73060852      9.57905120
  H      2.69711391      7.68176541      9.44422314
  N      7.42934131      6.06739114      6.70986059
  C      6.42246774      5.41704182      7.28211233
  N      6.55059645      4.12171945      7.03920850
  C      7.65344102      3.94130491      6.25830773
  C      8.21269570      5.16380945      6.05660596
  C      7.68322355      7.48289353      6.79218579
  C      8.22586750      7.84111681      8.17248705
  C      5.61895305      3.13280434      7.48899268
  H      5.67154481      5.83408205      7.92030787
  H      7.95282867      2.97437201      5.90952038
  H      9.07666828      5.48109527      5.49868986
  H      8.40976915      7.73028812      6.01272642
  H      6.74612699      8.01154880      6.60141360
  H      8.31015246      8.92033871      8.27093131
  H      9.21064238      7.40118772      8.31145771
  H      7.56439215      7.46354730      8.94976684
  H      5.45385470      3.28911073      8.55790800
  H      6.01379317      2.13702187      7.29992666
  H      4.67539790      3.27435662      6.95899806
 Cl     -0.40791420      6.69334764      8.20486217
 Cl      4.35472675      5.67278888      5.44512947
 Cl      5.86480394      4.98571329     10.31285289
 Cl     10.23429581      7.16410491      4.31043356
 Cl      8.96131336      5.53574166     -3.22117327

