62
Energy =    -96.26366945 au
  N      6.40477146      3.70618497      1.20737366
  C      6.67752394      4.86364035      1.79984089
  N      7.85311019      5.30670352      1.36148237
  C      8.33210246      4.39748749      0.46184011
  C      7.42230692      3.39027170      0.36177357
  C      5.20379916      2.93227331      1.41296373
  C      4.43380107      2.78053522      0.10743429
  C      8.50705537      6.52314755      1.75248189
  H      6.03172386      5.33045465      2.53156701
  H      9.27067733      4.52884254     -0.03504033
  H      7.39312499      2.51826807     -0.28671325
  H      5.49017631      1.94352519      1.78056800
  H      4.61507000      3.44970563      2.17551008
  H      3.52670439      2.21033600      0.28617337
  H      5.04085437      2.25236496     -0.62763299
  H      4.15963983      3.75640790     -0.28730002
  H      9.24598231      6.79258106      1.00057103
  H      9.01528533      6.41411102      2.71935513
  H      7.77544585      7.32245679      1.84968856
  N      4.48212766      8.27399064      4.51008929
  C      4.91588528      8.29673585      5.76448658
  N      6.23890064      8.15505629      5.76809244
  C      6.66839068      8.10461318      4.47506006
  C      5.56637610      8.17636459      3.68792720
  C      3.11907500      8.41831741      4.07717441
  C      2.85768311      9.85462785      3.63721247
  C      7.09438214      8.23135260      6.91461808
  H      4.29233561      8.31207491      6.63345997
  H      7.71099247      7.99060247      4.25152308
  H      5.45478016      8.14288098      2.62423985
  H      2.94461250      7.70186881      3.26970744
  H      2.47370836      8.16002241      4.91869067
  H      1.79652455     10.01067988      3.46167827
  H      3.40533495     10.08513992      2.72612528
  H      3.19806986     10.52442090      4.42519721
  H      7.04714345      9.24480356      7.32016768
  H      8.11034572      8.00072916      6.59877121
  H      6.76888540      7.52814156      7.68183914
  N      8.58464924      4.88611581      8.47690553
  C      8.63211689      5.11063911      7.16665545
  N      7.55193941      4.58974026      6.59830111
  C      6.79388176      4.01357969      7.57404492
  C      7.44245915      4.20269286      8.75701073
  C      9.54528862      5.31560837      9.46382227
  C      9.44541630      6.81896720      9.69476690
  C      7.28753490      4.60550721      5.18871508
  H      9.38493754      5.65179009      6.61391690
  H      5.86386645      3.53190544      7.35378900
  H      7.24318112      3.88484710      9.76964468
  H      9.31457290      4.76541747     10.38743771
  H     10.54688328      5.05440552      9.11390464
  H     10.16959911      7.11736403     10.44706720
  H      8.45290678      7.07692306     10.05465016
  H      9.64340725      7.36901206      8.77671738
  H      7.45991167      3.61475718      4.76517972
  H      7.96910285      5.32023143      4.72920901
  H      6.25184908      4.88993500      4.98451370
 Cl      8.16768222      3.45856184     11.81715200
 Cl      9.89105884      6.87234470      4.77676828
 Cl      4.26846868      5.28224535      3.89049276
 Cl      6.88245734      1.08383575     -1.79005892
 Cl      4.80057741     10.86300721      6.35720831
