62
Energy =    -96.26478387 au
  N      4.41289338      7.11683034      4.45598116
  C      5.37611874      7.92042254      4.01538547
  N      4.89120803      8.69087418      3.04927179
  C      3.58223978      8.37497275      2.86339504
  C      3.28084831      7.38485806      3.74808662
  C      4.50253818      6.16284042      5.53244402
  C      3.88823909      6.72504912      6.80957916
  C      5.62780254      9.67565009      2.31289583
  H      6.40954108      7.89797816      4.30591018
  H      3.00716146      8.85210982      2.09290747
  H      2.38651321      6.81538303      3.89200265
  H      3.95964183      5.26481787      5.20894063
  H      5.55377602      5.91911646      5.68952500
  H      3.95316552      5.98125629      7.59832101
  H      2.84080177      6.96903576      6.65184333
  H      4.41315635      7.62412659      7.13171206
  H      5.68066889     10.60979520      2.87451725
  H      5.11233403      9.85120693      1.36501513
  H      6.63580185      9.29460793      2.14845999
  N      4.13260999     -0.96682363      6.64149793
  C      4.22383192     -0.90499806      5.31620304
  N      4.21547943      0.37317027      4.95150769
  C      4.11266997      1.14452704      6.07297635
  C      4.05889974      0.29890891      7.13780935
  C      4.10222357     -2.16634409      7.44547230
  C      5.24302576     -3.10430125      7.07358922
  C      4.33764608      0.85974647      3.60631311
  H      4.32450674     -1.75332340      4.63514045
  H      4.06236403      2.21234416      6.01120820
  H      3.99044004      0.46037475      8.20275723
  H      4.16225756     -1.84508979      8.49282823
  H      3.14398630     -2.67012411      7.28286276
  H      5.18934500     -3.99945156      7.68784901
  H      6.20086905     -2.62074914      7.25106104
  H      5.18104490     -3.39357578      6.02598757
  H      5.39041250      1.02109336      3.36501436
  H      3.80452553      1.80860757      3.51141462
  H      3.93205327      0.12036041      2.91879353
  N      6.10172247      5.04955023      1.28859004
  C      6.83278510      5.91766777      0.59725605
  N      6.04244542      6.87880501      0.13338696
  C      4.77352551      6.63612965      0.56909338
  C      4.80883616      5.49134568      1.30066877
  C      6.58775935      3.87211289      1.96586003
  C      6.55064357      4.07678350      3.47458989
  C      6.44920627      8.01406255     -0.64278211
  H      7.88565549      5.84149722      0.42001207
  H      3.97697519      7.31445170      0.32750368
  H      4.04464806      4.97495246      1.85615167
  H      5.95046081      3.02830137      1.68716944
  H      7.60923759      3.68818839      1.62428574
  H      7.03253171      3.24358742      3.97811471
  H      5.51638676      4.13997756      3.80030134
  H      7.07635797      4.99558681      3.72122447
  H      5.60174013      8.70175833     -0.71115779
  H      6.75323856      7.70444829     -1.64424616
  H      7.28694387      8.50341294     -0.14731036
 Cl      2.95350871      4.00717598      3.64561686
 Cl      4.73812525     -3.36019595      3.38141599
 Cl      8.10927130      7.40466896      2.56685980
 Cl      3.51745290      9.67909137     -0.28375076
 Cl      4.04818193     -0.38006405     10.34514827
