62
Energy =    -96.26903341 au
  N      9.60422601      7.37750491      4.69867760
  C      8.80571873      8.12011024      5.45630084
  N      7.54665049      7.75489335      5.23026263
  C      7.54626172      6.74982676      4.30941079
  C      8.84189098      6.51171783      3.97210642
  C     11.04308882      7.48463932      4.67006860
  C     11.69282792      6.13733881      4.95659254
  C      6.36575129      8.30086715      5.83717822
  H      9.17957261      8.89207813      6.12690946
  H      6.62500682      6.31657701      3.97186666
  H      9.27381894      5.79526386      3.29461073
  H     11.34681928      7.83375757      3.67835145
  H     11.31942063      8.23662838      5.41647147
  H     12.77348293      6.24862206      4.96039948
  H     11.42021811      5.41008877      4.19502076
  H     11.37807139      5.76550967      5.92872502
  H      5.49785861      7.81448456      5.38557873
  H      6.31779548      9.37645278      5.66992562
  H      6.37085505      8.11434013      6.91130202
  N      5.74718287      6.31123507      0.39958874
  C      6.96391709      6.03859196     -0.07337497
  N      7.84597885      6.85166852      0.50020762
  C      7.16164374      7.70969819      1.31313522
  C      5.84958579      7.37084994      1.25232517
  C      4.52688091      5.66898704     -0.01124025
  C      4.13455235      4.56372572      0.96196021
  C      9.25356527      6.85614912      0.22799672
  H      7.21627731      5.21128558     -0.70212809
  H      7.65270405      8.48907656      1.85758477
  H      5.00201944      7.75823998      1.77815075
  H      3.74196958      6.42820209     -0.04641851
  H      4.68517062      5.28492583     -1.02172653
  H      3.19666309      4.10985697      0.65321726
  H      4.01276771      4.98619437      1.95690412
  H      4.90353414      3.79587028      0.99971845
  H      9.72198000      5.97156915      0.67285376
  H      9.70123211      7.75311506      0.64957746
  H      9.40169324      6.84417032     -0.85203275
  N      7.34844041      1.90850452      3.21726599
  C      6.28730575      1.31403358      3.75464369
  N      5.39920183      2.24436730      4.08036440
  C      5.90152772      3.46815577      3.75028598
  C      7.12770148      3.25390278      3.20045223
  C      8.52198417      1.24880856      2.69955560
  C      8.17076263      0.40914922      1.47672095
  C      4.12447535      1.96906124      4.67840077
  H      6.10446114      0.25221304      3.90639476
  H      5.35047770      4.37782768      3.91947128
  H      7.86729819      3.92788805      2.81347747
  H      9.24532486      2.02857744      2.44255947
  H      8.94004383      0.60960165      3.48181066
  H      9.06352032     -0.08489992      1.10356661
  H      7.77204441      1.04277054      0.68812775
  H      7.43015704     -0.34509961      1.73333818
  H      4.08278229      2.38960303      5.68344146
  H      4.00101099      0.88408065      4.72203795
  H      3.33132894      2.41842423      4.08162850
 Cl     10.23090514      4.16136528      2.06832344
 Cl     10.70731196     10.06945813      7.00305351
 Cl      4.84722076     -1.39530427      4.38481996
 Cl      4.18823141      6.35162874      4.05722909
 Cl      6.74411845      7.08588627     -2.40973367
