62
Energy =    -96.28796793 au
  N      5.17761540      8.00747093      7.63379897
  C      4.27175048      7.91251526      8.60104489
  N      3.84775756      9.12714827      8.92012017
  C      4.48659127     10.02912404      8.12992469
  C      5.32804610      9.32812694      7.32445189
  C      5.77928711      6.90137273      6.92683602
  C      5.39282249      6.93937405      5.45200328
  C      2.78596468      9.39361617      9.84476897
  H      3.92609453      7.01841843      9.11128260
  H      4.28221316     11.07855429      8.17303315
  H      5.98864951      9.66542609      6.55349568
  H      6.86644046      6.94261401      7.04527420
  H      5.41280005      5.98218102      7.38371598
  H      5.44166972      5.93325780      5.04432039
  H      6.04640812      7.59281401      4.87987331
  H      4.36818236      7.28919196      5.35465941
  H      1.91001169      9.71569898      9.27887820
  H      3.07507455     10.17655748     10.54515130
  H      2.56755746      8.46671289     10.37748587
  N      0.79297183      6.24054445      8.30096527
  C      0.90448146      4.96542056      8.64323558
  N      1.93594729      4.43329139      8.00281351
  C      2.50766369      5.39830579      7.23259318
  C      1.78762975      6.53579124      7.41924694
  C     -0.24121778      7.14974341      8.72159417
  C     -0.40440525      7.14103459     10.23791511
  C      2.42929791      3.09121496      8.11696206
  H      0.26705817      4.44845527      9.32911305
  H      3.34017218      5.16540282      6.59506311
  H      1.91153949      7.52869669      7.02666834
  H      0.04209922      8.14005758      8.35996321
  H     -1.17310999      6.83906116      8.23593720
  H     -0.90660551      8.04579509     10.56886282
  H      0.57339870      7.07934669     10.70954120
  H     -0.99121414      6.28329345     10.55536263
  H      2.91177609      2.95646815      9.08684071
  H      3.15905627      2.92776469      7.32366438
  H      1.60767651      2.38197063      8.02082579
  N      1.15077403      4.90314440      4.53671194
  C      0.12733635      5.67475014      4.88172456
  N      0.43845396      6.94142044      4.62827226
  C      1.69315868      6.97424449      4.09663470
  C      2.13975000      5.68947331      4.03639665
  C      1.20023848      3.47068744      4.67763437
  C      0.76379268      2.78768610      3.38618857
  C     -0.37238790      8.08858407      4.91803918
  H     -0.74086361      5.31092045      5.42235561
  H      2.16775741      7.89846527      3.84043046
  H      3.08784889      5.27491469      3.75591767
  H      2.23570047      3.20515192      4.91594507
  H      0.53021876      3.20033236      5.49617747
  H      0.82220426      1.71044511      3.50900012
  H      1.41597476      3.07742090      2.56485994
  H     -0.26202743      3.05518467      3.13901112
  H     -0.73802312      8.54159384      3.99520546
  H      0.23821024      8.82355847      5.45764340
  H     -1.21403451      7.78361492      5.53434561
 Cl     -1.45551084      4.23868235      7.10754004
 Cl      4.52714303      3.65246043      5.17641005
 Cl     47.05123587     -9.88877046    -40.75881437
 Cl      2.92653711      6.05761931     10.74537272
 Cl      1.99325523      9.78117842      6.47156023
