#B3LYP/6-31+G(d) OPT FREQ

62, Energy =    -96.27273355 au

0 1
  N      2.14426523      5.12372828      8.33702195
  C      2.70516421      4.88070977      7.15659794
  N      2.10245070      5.60938081      6.22480945
  C      1.09067362      6.30192906      6.82573597
  C      1.11781202      6.00106956      8.15162909
  C      2.55996674      4.45741406      9.54883541
  C      1.71077913      4.83407735     10.74826748
  C      2.39630668      5.60933840      4.82128911
  H      3.58727770      4.28967268      7.02102563
  H      0.44631440      6.94797729      6.26680622
  H      0.52302277      6.38506650      8.95698218
  H      2.48989012      3.38140621      9.35146709
  H      3.61364210      4.70315729      9.71507509
  H      2.12610542      4.37309458     11.64106886
  H      0.69154505      4.47693005     10.61908970
  H      1.67966036      5.91070833     10.89684190
  H      1.68440358      4.97036089      4.29605061
  H      3.39779702      5.21394438      4.66984733
  H      2.33565314      6.62855234      4.42574451
  N      4.15241524      7.97264055      7.14033117
  C      3.11149935      8.74760581      6.85511188
  N      2.42517539      8.96595530      7.97123305
  C      3.04529154      8.31941416      8.99747463
  C      4.13592665      7.69678977      8.47403186
  C      5.14835837      7.53515810      6.19573831
  C      6.35150293      8.47268976      6.21608601
  C      1.21098097      9.71808282      8.09660542
  H      2.84588618      9.05130510      5.84441288
  H      2.60918423      8.31767596      9.97943687
  H      4.86526600      7.04876616      8.91686933
  H      5.45788651      6.52549234      6.48051532
  H      4.68987093      7.53738256      5.20557729
  H      7.09427104      8.12401244      5.50448920
  H      6.80185968      8.48953875      7.20634590
  H      6.04959805      9.48165064      5.94185028
  H      1.43270504     10.77033723      8.28419781
  H      0.65382823      9.31350943      8.95029557
  H      0.63207184      9.63359790      7.18015207
  N      5.23187079      0.98820970      6.87785082
  C      5.64093503      1.58711053      7.99180580
  N      6.18826467      0.67782355      8.79385742
  C      6.11963904     -0.53713415      8.19070355
  C      5.51997390     -0.34019150      6.98485647
  C      4.60712813      1.63230634      5.74792559
  C      5.47746590      2.76165566      5.21102978
  C      6.76891095      0.90030035     10.08764610
  H      5.57918465      2.64879039      8.18952721
  H      6.55439049     -1.40348480      8.66643445
  H      5.27542522     -1.03790928      6.21083209
  H      4.45422546      0.87019136      4.98003218
  H      3.61710080      2.01158155      6.05407439
  H      4.97554273      3.23716104      4.37299520
  H      6.43984526      2.37970863      4.87084553
  H      5.65826624      3.50975552      5.97907676
  H      7.38822064      1.79539913     10.06774561
  H      7.36703954      0.01697772     10.33977576
  H      5.98557619      1.02897929     10.83593801
 Cl      2.54630899      8.87868014      3.76521331
 Cl      0.37268731      8.18859126     10.87686949
 Cl      8.06260856     -2.19656859     10.16959858
 Cl      5.88071535      4.83372451      8.14629241
 Cl      1.59171687      2.47135256      6.72785062

