62
Energy =    -96.24357521 au
  N      1.99552530      9.11236400     -2.33767321
  C      1.79403736      9.52123040     -1.09056938
  N      2.90332803     10.09942918     -0.63826658
  C      3.83320687     10.06630719     -1.63845398
  C      3.26444631      9.44607485     -2.70694768
  C      1.04833258      8.45776762     -3.21047869
  C      0.68199664      9.37572406     -4.37071662
  C      3.07542882     10.65884379      0.67292785
  H      0.90632955      9.41169482     -0.48995394
  H      4.81451473     10.47699001     -1.52033253
  H      3.63561733      9.27632161     -3.71928538
  H      1.52398296      7.56016128     -3.61264263
  H      0.16754507      8.16597119     -2.63189515
  H     -0.07634246      8.89515717     -4.98141645
  H      1.56282397      9.56228889     -4.98392447
  H      0.28797614     10.32066549     -4.00192587
  H      3.97337489     10.25293854      1.13752283
  H      2.19945235     10.39741667      1.27401527
  H      3.16457322     11.74405354      0.61363385
  N     10.25584548      4.40277350     12.01007388
  C      9.86311738      3.60068643     11.02325839
  N     10.04490501      2.33487899     11.39171466
  C     10.56641913      2.32762279     12.64795399
  C     10.69587536      3.62913320     13.03832789
  C     10.17082197      5.84200566     12.02990300
  C      8.74861562      6.29004870     12.34646212
  C      9.76790153      1.16538425     10.60675818
  H      9.46924351      3.92281918     10.07930712
  H     10.75061253      1.38726849     13.14150965
  H     11.10241880      4.09796534     13.91960794
  H     10.85681924      6.18718615     12.82432464
  H     10.48828355      6.22843044     11.05807993
  H      8.71072673      7.37476060     12.37228413
  H      8.45574256      5.91531486     13.32333487
  H      8.03995619      5.92961272     11.60033061
  H      8.78839285      1.24726272     10.13717931
  H      9.79865639      0.29551621     11.28679283
  H     10.52825967      1.03805827      9.83500673
  N      0.11832176      5.83315832      0.61866661
  C     -0.76594325      6.83146602      0.50609058
  N     -1.85383285      6.51667794      1.21487043
  C     -1.71415257      5.23222581      1.66841447
  C     -0.48052132      4.80845373      1.30162869
  C      1.42737608      5.85356843      0.02217263
  C      2.39225904      6.68632321      0.86295898
  C     -3.00538899      7.36399837      1.29935640
  H     -0.52635611      7.83499654      0.21746868
  H     -2.48827168      4.73340981      2.21493476
  H      0.01254915      3.87330245      1.47064663
  H      1.78046960      4.82401538     -0.07546973
  H      1.31731732      6.28180687     -0.97794753
  H      3.29080630      6.90733581      0.29267269
  H      2.67433814      6.15211795      1.76785489
  H      1.91298216      7.61896769      1.15451018
  H     -2.68629218      8.36027188      1.60814506
  H     -3.71307134      6.95912153      2.01961032
  H     -3.47085031      7.43533211      0.31333546
 Cl      0.22655727      9.44302895      1.79691856
 Cl     12.05544657      6.17781531     14.58964142
 Cl     10.15190587     -0.92379331     12.98176131
 Cl     -1.54014119      6.51732359     -1.77489743
 Cl      3.96133681      9.29373234     -5.77467432
