62
Energy =    -96.27196305 au
  N      4.91814382      6.50829269      4.06611727
  C      4.54582074      5.79019159      3.00982968
  N      3.34056024      6.18953291      2.62055164
  C      2.93399790      7.19531192      3.44652966
  C      3.92723594      7.40082866      4.35260344
  C      6.19943016      6.44593214      4.72468052
  C      7.19214231      7.36733268      4.02454830
  C      2.61636162      5.71385610      1.47815163
  H      5.12525022      5.01985542      2.54493913
  H      1.98667934      7.67502599      3.27926145
  H      4.05638797      8.11194378      5.15249261
  H      6.06218704      6.77920106      5.75541787
  H      6.54680020      5.40821438      4.70263933
  H      8.20388233      7.14903394      4.35307649
  H      6.95328333      8.39611814      4.27447054
  H      7.12800422      7.23392252      2.94882552
  H      1.77552409      6.38755603      1.30469531
  H      2.24763084      4.70115713      1.64711417
  H      3.28276935      5.71543380      0.61548938
  N      8.33517481      2.58705385      3.34519966
  C      7.53899550      2.15633451      2.34990475
  N      7.16380761      3.22173493      1.62485447
  C      7.86992729      4.31304305      2.05981664
  C      8.59541712      3.92495403      3.13096894
  C      9.00773594      1.76151089      4.31486237
  C     10.44107549      1.46669582      3.88422166
  C      6.36180268      3.18629587      0.43586936
  H      7.00553522      1.22821607      2.37640008
  H      7.74888548      5.26799497      1.58727216
  H      9.25961738      4.47849493      3.76079892
  H      8.98798849      2.27986399      5.28039889
  H      8.44979396      0.82669209      4.40179439
  H     10.90083311      0.75571808      4.56469244
  H     11.03308019      2.37823268      3.86873963
  H     10.42120433      1.04807586      2.88049985
  H      6.91287969      2.67642135     -0.35820146
  H      6.14319660      4.21299988      0.13851153
  H      5.43319736      2.64491179      0.62490163
  N      3.59775187     10.48286567      3.37348606
  C      2.95422444     10.05066064      2.29344825
  N      3.83552756      9.53745409      1.44171862
  C      5.07654502      9.64804520      1.98643548
  C      4.92767690     10.24348353      3.20127196
  C      3.03816719     11.05295044      4.57580219
  C      1.53318490     10.87412481      4.65535914
  C      3.50435554      8.92163382      0.18922909
  H      1.88927151      9.98505903      2.13703612
  H      5.94553929      9.26393470      1.49373063
  H      5.62921797     10.45720972      3.98219078
  H      3.54842846     10.56164872      5.41704265
  H      3.29715398     12.11692229      4.60951555
  H      1.18196021     11.22618122      5.62205233
  H      1.26514595      9.82613231      4.55037210
  H      1.02522958     11.44075842      3.87711180
  H      2.46695801      8.59072653      0.23693432
  H      4.17075501      8.07323386      0.03130482
  H      3.62795727      9.62796947     -0.63347122
 Cl      5.93398171      6.61769906      0.62503555
 Cl      0.39615544      8.36506037      1.62887309
 Cl      5.34615586      9.52550259      6.37806704
 Cl      4.86672335    -25.06005595     29.34622590
 Cl      8.97138094      0.97241207      0.83751621
