62
Energy =    -96.27029785 au
  N      3.31584036      3.18022664      2.16443913
  C      3.72506147      3.82005697      3.25297704
  N      3.01560021      4.92968470      3.40308813
  C      2.12663856      5.00799327      2.37960507
  C      2.30776372      3.90631326      1.60392748
  C      3.77296351      1.87859431      1.74713738
  C      2.95100977      0.79858160      2.44458371
  C      3.17172038      5.90744016      4.43736059
  H      4.50900021      3.47448426      3.89363666
  H      1.46374668      5.83988514      2.26548423
  H      1.81164820      3.59901124      0.70646927
  H      3.67172896      1.80736561      0.66165432
  H      4.83361397      1.78743059      2.01175897
  H      3.40347370     -0.17545517      2.28510548
  H      1.92920811      0.78142133      2.06773576
  H      2.91888532      1.00240426      3.51204408
  H      2.19161445      6.28206705      4.73107317
  H      3.76774658      6.73853991      4.04893654
  H      3.64842088      5.44007560      5.29630652
  N      6.98296861      7.03356310      0.59347450
  C      6.82560585      6.91847404      1.91241877
  N      6.97708563      5.65085363      2.26112660
  C      7.19167200      4.91677896      1.13625470
  C      7.19217789      5.78205524      0.08873941
  C      6.77128830      8.24836450     -0.14833636
  C      7.88652519      9.25803927      0.09763547
  C      6.92458177      5.12399526      3.59119762
  H      6.65128823      7.72621966      2.59245372
  H      7.30291534      3.84916208      1.18621978
  H      7.31613496      5.60760433     -0.96013115
  H      6.71384996      7.99198951     -1.20848543
  H      5.80342915      8.64963360      0.17154556
  H      7.69191768     10.16625786     -0.46648125
  H      8.84668062      8.85117061     -0.21361698
  H      7.94482234      9.51093144      1.15259358
  H      7.74793766      5.52968145      4.19564011
  H      7.00847490      4.04049984      3.52417673
  H      5.98342994      5.41087638      4.05609196
  N      6.74145151      4.00100828      6.61348912
  C      5.80224590      3.09574350      6.35084613
  N      6.36662743      2.04451959      5.76898848
  C      7.70218093      2.28019614      5.65977436
  C      7.94002662      3.50914691      6.19622741
  C      6.56139840      5.27830337      7.25510256
  C      6.76248426      5.15569692      8.76181765
  C      5.66034746      0.90099759      5.26930397
  H      4.73470768      3.18172061      6.50178002
  H      8.36152129      1.58841556      5.17955171
  H      8.82543250      4.11392422      6.24303925
  H      7.31057018      5.95915852      6.82515739
  H      5.55449436      5.63859340      7.03719988
  H      6.61188323      6.12484129      9.22780404
  H      7.77513460      4.82471962      8.97740512
  H      6.05690557      4.44532771      9.19073057
  H      5.94709547      0.00298023      5.81665538
  H      5.91583443      0.78215277      4.21283918
  H      4.59199876      1.08416121      5.37858678
 Cl      4.14423744      7.23846898      1.60134950
 Cl      9.14011567      6.52332634      5.64922503
 Cl     -7.98476641     24.00838892     34.66414162
 Cl      2.70713839      2.68704503      5.68355920
 Cl      7.05502063      1.81255186      2.43877381
