#B3LYP/6-31+G(d) OPT FREQ

62, Energy =    -96.27225004 au

0 1
  N      4.54489195      0.88615812      4.53111163
  C      3.51304031      0.07496179      4.33827201
  N      2.67531666      0.18590540      5.36069565
  C      3.16196113      1.12274671      6.21693302
  C      4.33861591      1.56278319      5.69671497
  C      5.62989276      1.06171908      3.59528494
  C      5.73290428      2.51582881      3.15142949
  C      1.47561657     -0.56676444      5.58466998
  H      3.40394132     -0.54048801      3.45743326
  H      2.59532306      1.42315395      7.07843943
  H      5.01965019      2.30515677      6.05651205
  H      6.56261244      0.72649954      4.06333521
  H      5.40735676      0.41869281      2.73910093
  H      6.34934166      2.59200041      2.26051394
  H      6.16446019      3.14071174      3.93074028
  H      4.73132419      2.87535330      2.92812477
  H      0.91696872     -0.66540924      4.65754773
  H      0.87720963     -0.03451320      6.33189394
  H      1.72207360     -1.56205965      5.96015370
  N      1.97179208      2.76371133      0.53748405
  C      2.17074872      1.48564918      0.83620927
  N      1.00120446      0.90133993      1.05619316
  C      0.02675808      1.85060231      0.93755523
  C      0.63749457      3.02222156      0.62151510
  C      3.01110221      3.75025844      0.38179074
  C      2.64692235      4.81544030     -0.63998798
  C      0.81262636     -0.48252365      1.38397490
  H      3.11119833      0.96398156      0.90958905
  H     -1.00828458      1.62735799      1.09478845
  H      0.23206126      4.01340535      0.50323262
  H      3.16467431      4.20509401      1.36552030
  H      3.92473536      3.22090087      0.09752862
  H      3.48119676      5.50177690     -0.75792825
  H      1.78060246      5.38454295     -0.31029458
  H      2.42799380      4.36402793     -1.60554924
  H      0.20325939     -0.97094445      0.62164190
  H      0.31340328     -0.57359022      2.34897818
  H      1.79618628     -0.95885170      1.42987916
  N     -0.33083811      3.98210819      4.60816793
  C      0.14381615      4.82175113      3.69733091
  N      1.22724885      5.41369933      4.17607345
  C      1.46885827      4.91388627      5.42133917
  C      0.49111530      4.01008721      5.69486211
  C     -1.46878055      3.11506906      4.43667995
  C     -1.02395413      1.66141048      4.52999528
  C      2.03815271      6.33245273      3.43122337
  H     -0.25573153      5.02939118      2.71424306
  H      2.31757474      5.20885549      6.00245601
  H      0.35789213      3.34899048      6.53598926
  H     -2.20515226      3.33636878      5.21607231
  H     -1.90153657      3.33851522      3.45793790
  H     -1.81877508      0.99606266      4.20281223
  H     -0.75830008      1.42551481      5.55787527
  H     -0.14481851      1.52514896      3.90570022
  H      3.01299643      5.88266860      3.23870687
  H      2.17322965      7.26104963      3.98705791
  H      1.53562264      6.53192847      2.48234020
 Cl     -0.29436351      6.21124173      0.81240761
 Cl     20.15010911     21.11759636      6.06516463
 Cl      2.31541886      2.66330013      3.43702969
 Cl      0.18421581      1.47574459      7.89505363
 Cl      4.09252542     -1.18033320      1.37331375

