62
Energy =    -96.24308589 au
  N      2.53011632      1.62519769      4.39976929
  C      3.17122205      2.67780126      3.90811998
  N      2.88237775      3.74670371      4.63727373
  C      1.99470361      3.37161168      5.60006388
  C      1.78005971      2.03671169      5.46204259
  C      2.64654413      0.26402540      3.94796769
  C      3.57498470     -0.51726465      4.87461016
  C      3.37543612      5.05714432      4.33708507
  H      3.84929055      2.66383785      3.08075698
  H      1.56824957      4.07993066      6.27943439
  H      1.18087037      1.34868404      6.02627985
  H      1.64910200     -0.18313896      3.94024734
  H      3.03691765      0.28459285      2.92755035
  H      3.82017934     -1.47934875      4.43244773
  H      3.09133310     -0.68446013      5.83442827
  H      4.49138603      0.04626378      5.03114879
  H      4.46569337      5.04106514      4.37833147
  H      2.97921691      5.78217707      5.04398122
  H      3.05234325      5.31078529      3.32625236
  N      4.19234329      3.41188413      7.95337897
  C      2.99629036      3.58636234      8.51126725
  N      2.40047035      2.40197625      8.63949861
  C      3.24023909      1.44820096      8.15679059
  C      4.36742195      2.08170518      7.72827787
  C      5.14959430      4.42473557      7.59248722
  C      6.28656538      4.48584822      8.60375709
  C      1.07406580      2.14112522      9.12601218
  H      2.57821405      4.53129194      8.80095879
  H      2.91256076      0.42010648      8.11092711
  H      5.22944931      1.72594878      7.19918906
  H      5.54800605      4.12834990      6.60870508
  H      4.63901237      5.38691752      7.52483657
  H      6.98854120      5.26027999      8.30846800
  H      6.81268823      3.53545991      8.62549526
  H      5.91450416      4.70924760      9.60308951
  H      1.03266859      2.25002578     10.21162108
  H      0.82429020      1.10495158      8.84803480
  H      0.36111991      2.82658230      8.66621953
  N      0.11842983      7.38637585      3.14946844
  C      1.01569991      6.87193200      2.31167924
  N      1.86071393      7.83615809      1.94888519
  C      1.49298651      8.99413972      2.56604150
  C      0.39507645      8.71052673      3.32188133
  C     -0.97271892      6.67906836      3.77877203
  C     -0.46080385      5.47906546      4.56444472
  C      2.99037525      7.70654914      1.07230068
  H      1.06522011      5.83581040      2.00402774
  H      2.03420126      9.90596561      2.37503891
  H     -0.20139902      9.30526880      3.99085401
  H     -1.46730143      7.39214030      4.45218383
  H     -1.67382122      6.35066721      3.00521134
  H     -1.29851199      4.96805518      5.03210991
  H      0.20981078      5.82547161      5.34845826
  H      0.06243588      4.77654293      3.91893822
  H      3.33257029      8.71766019      0.80813807
  H      2.71002973      7.15271000      0.17765075
  H      3.80007918      7.17435496      1.57604939
 Cl      1.47128739      3.60395420      1.98382097
 Cl     -1.79816643      9.13391521      5.84775392
 Cl      3.63450204     10.91120252      0.79396112
 Cl      1.10448520     -0.86944133      7.83355956
 Cl      5.87975415      2.61467095      5.03769411
