#B3LYP/6-31+G(d) OPT FREQ

62, Energy =    -96.29357406 au

0 1
  N      4.27584777      8.37570655      6.33143423
  C      3.54312015      9.48174901      6.36086829
  N      2.27560428      9.15777746      6.56558410
  C      2.19510360      7.80379009      6.69115045
  C      3.45198155      7.30931272      6.54031072
  C      5.68854375      8.33923045      6.05597614
  C      6.50678994      8.70131618      7.29215760
  C      1.18595355     10.06943152      6.74920425
  H      3.91560924     10.47571658      6.22785922
  H      1.24913427      7.32270261      6.84483691
  H      3.81287149      6.29915615      6.59897143
  H      5.93576893      7.33471908      5.70589298
  H      5.87062599      9.05001014      5.24519710
  H      7.51834353      8.97689740      7.00660590
  H      6.55358989      7.86081580      7.98005028
  H      6.04337131      9.53835674      7.80872100
  H      0.25833081      9.50123065      6.78743965
  H      1.15669745     10.78647218      5.92926372
  H      1.33186237     10.60406672      7.69031004
  N      0.94076680      5.87342234      9.15712787
  C      2.25927115      5.70815517      9.21094967
  N      2.81594707      6.83682130      9.63287208
  C      1.83399188      7.74944642      9.85925947
  C      0.65271986      7.14318512      9.55924220
  C     -0.02159904      4.89130595      8.72954109
  C     -0.84425766      4.37711643      9.90593332
  C      4.22018457      7.07685213      9.78440200
  H      2.81009774      4.85544596      8.83383435
  H      2.07504958      8.75879384     10.13339446
  H     -0.34747252      7.52263345      9.55569504
  H     -0.67047558      5.37209473      7.98573575
  H      0.52927254      4.07345532      8.26277580
  H     -1.56531447      3.64552251      9.55304151
  H     -1.38622410      5.19255264     10.37843035
  H     -0.20254624      3.90566551     10.64839801
  H      4.41094077      8.12351396      9.52330873
  H      4.76545300      6.39947356      9.13139984
  H      4.52638871      6.90945112     10.81862248
  N      1.78827184      5.24776503      4.54697519
  C      0.91984119      6.24321194      4.39604071
  N      1.49914650      7.22153092      3.70809694
  C      2.76766402      6.84182517      3.39930095
  C      2.95013930      5.60122632      3.92948289
  C      1.54778250      4.02029237      5.26015167
  C      1.44992156      2.83749115      4.30256888
  C      0.91198370      8.48979618      3.38951558
  H     -0.04870691      6.30931018      4.87342691
  H      3.44134137      7.52040431      2.91165673
  H      3.81075019      4.96576142      3.94111226
  H      2.37405303      3.87148305      5.97062702
  H      0.61424844      4.14295134      5.81053376
  H      1.26485866      1.92909248      4.86812010
  H      2.37925882      2.71348871      3.75244733
  H      0.63705303      2.98001048      3.59192915
  H      0.49252452      8.47546044      2.38214281
  H      1.70633401      9.24410727      3.43219179
  H      0.12484546      8.70866327      4.10703161
 Cl     -1.22117003      7.08172559      6.56538189
 Cl      4.14611497      4.00586206      7.33057175
 Cl     52.41532367    -14.08983055    -42.90330721
 Cl      3.74330391     10.27386024      9.12979164
 Cl      3.87626998      9.83899640      3.52912642

