#B3LYP/6-31+G(d) OPT FREQ

62, Energy =    -96.08930801 au

0 1
  N      8.44968512      1.48339476      2.86056633
  C      9.06180235      0.25870485      3.00388132
  N      9.91699310      0.34191027      4.06450566
  C      9.79751753      1.58618351      4.61159309
  C      8.89212912      2.28683078      3.88914989
  C      7.35493127      1.77109407      1.98105783
  C      6.00171101      1.53776640      2.65567676
  C     10.76283874     -0.72701223      4.49850239
  H      9.05397987     -0.56797869      2.32169625
  H     10.36514492      1.88663247      5.47000724
  H      8.53997634      3.29031168      4.01302440
  H      7.42837823      2.81547309      1.65943079
  H      7.45108402      1.12587058      1.10478677
  H      5.19585378      1.79494739      1.97326373
  H      5.91136368      2.15879474      3.54418589
  H      5.90526442      0.49388800      2.94422754
  H     10.42368343     -1.12949565      5.45657009
  H     11.79197420     -0.37969360      4.60533340
  H     10.71716346     -1.51408077      3.73668151
  N      0.76149428      6.73189794      0.61408959
  C      0.16896674      7.81607774      1.10776117
  N      0.75345884      8.12740419      2.26144493
  C      1.74850945      7.22927691      2.51094252
  C      1.75022506      6.34566396      1.47325984
  C      0.44134979      6.13094159     -0.65545340
  C      1.54321008      6.41863693     -1.66985978
  C      0.43099819      9.21680679      3.13707785
  H     -0.67998288      8.28598468      0.61942871
  H      2.34856371      7.35661233      3.39883858
  H      2.43528588      5.53562514      1.25518350
  H      0.33199479      5.05232865     -0.51546650
  H     -0.51091783      6.56343066     -0.98303169
  H      1.32097797      5.91332831     -2.60567690
  H      2.50695762      6.07770029     -1.29514615
  H      1.59672457      7.48752224     -1.85908396
  H      1.20115366      9.23509809      3.91273294
  H     -0.55400179      9.06436446      3.57901376
  H      0.41512288     10.15142732      2.57786233
  N      4.77053450      5.99761978      1.99317447
  C      4.48485840      5.04676487      0.95886193
  N      4.61774831      5.79453862     -0.28336433
  C      4.86429441      7.13279257      0.09732168
  C      4.92346376      7.22943988      1.43863852
  C      4.91826242      5.68867042      3.37978822
  C      6.39414352      5.55440637      3.78072991
  C      5.42353417      5.23200917     -1.34464273
  H      5.13666168      4.15983442      0.99656606
  H      4.95559329      7.89503385     -0.65223949
  H      5.02537396      8.09910348      2.05808517
  H      4.44388213      6.47681436      3.97415955
  H      4.40100086      4.74352928      3.56755145
  H      6.47697635      5.25245570      4.82199800
  H      6.90230915      6.50722655      3.65248811
  H      6.88910543      4.81379384      3.15409878
  H      6.47896676      5.08566493     -1.05914439
  H      5.38922350      5.89346137     -2.21256283
  H      5.00948739      4.26206136     -1.62549011
 Cl      5.04306104     10.24379704      9.04383423
 Cl      3.14231833      8.53893578      5.22255326
 Cl     10.14957232     -2.60428390      1.84695505
 Cl      3.99612922      9.28729124      6.91801279
 Cl     -2.27046397      8.20320880     -0.85263640

