62
Energy =    -96.26420582 au
  N      6.56001630      5.74088397      7.17906108
  C      7.43780849      5.01597178      7.86001344
  N      8.63453090      5.58505376      7.75437625
  C      8.51232705      6.70609385      6.98959482
  C      7.20262385      6.80707268      6.63088919
  C      5.15220050      5.45773381      7.07780306
  C      4.37179237      6.23272977      8.13483498
  C      9.86477366      5.09551161      8.30515976
  H      7.19711493      4.05919635      8.30977745
  H      9.35846500      7.34292582      6.82078508
  H      6.67771856      7.47871028      5.97675148
  H      4.82874863      5.77009800      6.07897067
  H      5.02315412      4.38397871      7.22367645
  H      3.31891145      5.97626481      8.06362703
  H      4.47356801      7.30357644      7.97034615
  H      4.72420155      5.98260275      9.13469382
  H      9.68140528      4.64159295      9.27645577
  H     10.55849768      5.93761308      8.39883704
  H     10.29786032      4.34318709      7.64416302
  N      7.96273488      5.00854550      3.56727329
  C      6.73019408      4.51412846      3.47715017
  N      6.53669716      3.65518117      4.47328907
  C      7.70210178      3.53554752      5.17297131
  C      8.59329582      4.38996195      4.61085854
  C      8.53715580      5.96564468      2.66064769
  C      8.30756631      7.39066969      3.15093992
  C      5.36279185      2.86252745      4.69133846
  H      5.97073888      4.87710629      2.81641692
  H      7.77191316      2.87241083      6.01275742
  H      9.61424978      4.60150101      4.85479240
  H      9.60561171      5.75026233      2.56800183
  H      8.06429946      5.80671575      1.68903633
  H      8.61236328      8.10242795      2.38833867
  H      8.87552611      7.58010797      4.05891467
  H      7.25101574      7.53348802      3.36895061
  H      4.47643648      3.48948293      4.60350303
  H      5.41940686      2.42527623      5.68863733
  H      5.31796004      2.07309589      3.93813003
  N      8.35493586      9.14857382      9.39665325
  C      9.49788134      9.14837209     10.07642765
  N      9.57629684      8.03276343     10.79416155
  C      8.41755048      7.33547586     10.62836930
  C      7.64994250      8.03456103      9.75613347
  C      7.89811904     10.17134482      8.49014544
  C      9.05441466     10.75702866      7.68920664
  C     10.69460623      7.69577681     11.61961179
  H     10.29053086      9.85611967      9.97092833
  H      8.22870894      6.40953854     11.13177607
  H      6.67351053      7.83057483      9.36887655
  H      7.16701779      9.70959542      7.82119510
  H      7.40441966     10.95662362      9.07447164
  H      8.67697129     11.25917499      6.80275368
  H      9.73290729      9.96333439      7.38596733
  H      9.61054079     11.47323297      8.28764336
  H     11.58367672      7.62960995     10.98916019
  H     10.51505158      6.74228846     12.11189368
  H     10.82974373      8.48311699     12.36398648
 Cl      5.00422367      7.18958572      4.25169750
 Cl      7.18636023      2.90020042      1.50673629
 Cl      8.86226147     10.69792125     12.05690061
 Cl     11.41742922      8.01152847      8.19408459
 Cl      6.23882981      2.13719727      8.09476372
