#B3LYP/6-31+G(d) OPT FREQ

62, Energy =    -96.17924360 au

0 1
  N      2.60824682      1.97011630     -1.76717507
  C      1.87839569      3.10603719     -1.18253881
  N      0.48803772      2.65609294     -1.02801551
  C      0.41876238      1.44631479     -1.75450928
  C      1.62367910      1.06589749     -2.17443783
  C      3.65437738      2.36248903     -2.70295854
  C      4.33959341      1.16118452     -3.34066987
  C     -0.49881186      3.66918510     -1.36614073
  H      1.92017983      3.97078408     -1.86508361
  H     -0.52369537      0.93694975     -1.84114709
  H      1.89508050      0.15988544     -2.67974877
  H      3.25036701      3.03158452     -3.47497125
  H      4.39054803      2.93060456     -2.12483300
  H      5.23608962      1.49038733     -3.86075840
  H      3.68771141      0.67808082     -4.06420421
  H      4.62320512      0.43573617     -2.57926306
  H     -0.53131974      4.40038349     -0.55986831
  H     -1.47669621      3.19591616     -1.46592086
  H     -0.24554677      4.18325794     -2.29898375
  N      1.75197400      4.55032503      0.84993820
  C      2.52594358      3.52250771      0.15544768
  N      2.62590235      2.39839009      1.08894417
  C      2.09690430      2.85743161      2.30499163
  C      1.58982543      4.08080002      2.16315970
  C      2.17742800      5.92927767      0.68406957
  C      1.57150685      6.60832642     -0.53982878
  C      3.89463807      1.70714233      1.13808722
  H      3.53690573      3.90970375     -0.09838607
  H      2.09935731      2.20750365      3.15751789
  H      1.05973015      4.68407858      2.87542512
  H      1.86888561      6.47458592      1.58331594
  H      3.27996797      5.98120057      0.62394266
  H      1.93796799      7.63181293     -0.59806387
  H      0.48506050      6.63316542     -0.45813017
  H      1.83144337      6.10257869     -1.46678822
  H      4.05813089      1.21339133      0.18152287
  H      3.85492824      0.96489348      1.93481583
  H      4.73323100      2.39432924      1.32409666
  N      0.16250505      0.26938851      1.87658675
  C     -0.38245722     -0.21196995      2.99495456
  N     -1.27741949      0.66649405      3.46215702
  C     -1.29945015      1.72790994      2.60285660
  C     -0.39744854      1.47871127      1.61297427
  C      1.19301412     -0.37505801      1.10379327
  C      0.63626237     -1.57569444      0.34649435
  C     -2.02589289      0.54166086      4.68194145
  H     -0.10892270     -1.13066231      3.46916215
  H     -1.93150420      2.57618247      2.76372171
  H     -0.10277718      2.06187431      0.74978161
  H      1.57962702      0.36749299      0.40528168
  H      1.97861720     -0.68439927      1.80110137
  H      1.42724481     -2.01531537     -0.25226212
  H     -0.16686751     -1.27223931     -0.32072373
  H      0.26476962     -2.33031309      1.03435437
  H     -2.86186134      1.23523645      4.66749370
  H     -1.39596141      0.77683081      5.55165578
  H     -2.38923342     -0.47945736      4.79723840
 Cl      2.54266390     -0.54049489      4.20572172
 Cl     -0.11460873      1.02002111      7.49828069
 Cl     33.60659713     17.30903086     22.28986299
 Cl      1.80262932      5.22737411     -3.85688541
 Cl      1.47924617      0.18706093      5.77915284

