#B3LYP/6-31+G(d) OPT FREQ

62, Energy =    -96.27933278 au

0 1
  N      5.03205135      5.41798960      2.54192974
  C      4.36423893      4.27539670      2.63510107
  N      5.20293090      3.30883459      2.98184547
  C      6.44133393      3.85233999      3.12943521
  C      6.33405784      5.18060807      2.85085094
  C      4.47023772      6.67630892      2.12520326
  C      3.52322004      7.22899203      3.18384115
  C      4.88754590      1.92644079      3.20186302
  H      3.32353865      4.15350644      2.41306698
  H      7.27905800      3.23815353      3.39204966
  H      7.07229520      5.96116538      2.83230128
  H      5.30022849      7.36368547      1.94801141
  H      3.93341596      6.48939958      1.18745501
  H      3.18907353      8.22271905      2.89858897
  H      4.02938204      7.27981658      4.14470309
  H      2.65358961      6.58320489      3.29096591
  H      4.07314036      1.62705925      2.54575030
  H      4.59118495      1.77384932      4.24076990
  H      5.78109047      1.33102535      2.99134717
  N      5.38661565      7.65787181      6.79410651
  C      6.19890756      6.59135607      6.78377253
  N      7.12428363      6.76715106      5.83817423
  C      6.82547156      7.90875195      5.14773720
  C      5.74256427      8.46443438      5.73881515
  C      4.19347039      7.75410944      7.59257646
  C      4.51123258      8.06950448      9.05093399
  C      8.18347795      5.85561513      5.51258922
  H      6.24964731      5.85522362      7.55819630
  H      7.40500992      8.19485957      4.28826354
  H      5.19812118      9.35471091      5.50234344
  H      3.56114345      8.53531650      7.16556560
  H      3.67535454      6.79265562      7.50783237
  H      3.58738112      8.17159876      9.61294441
  H      5.07275169      8.99830683      9.12916281
  H      5.09756411      7.26979134      9.49495594
  H      8.66548675      6.20713743      4.59961163
  H      7.76731625      4.86301618      5.34841983
  H      8.91227609      5.81276944      6.32276021
  N      8.53052603      4.41497603      0.69443922
  C      7.93218570      3.23545268      0.56536033
  N      6.78038019      3.40503622     -0.06980345
  C      6.63609378      4.72571457     -0.36596434
  C      7.73933684      5.36175395      0.11565942
  C      9.79405205      4.65447971      1.34318578
  C     10.93163057      4.68582618      0.32748751
  C      5.82918740      2.37129898     -0.35915014
  H      8.24078230      2.29347867      1.01286076
  H      5.73894981      5.09321077     -0.82455266
  H      8.00276956      6.39924844      0.13749057
  H      9.72113375      5.61625191      1.86356182
  H      9.95442900      3.85552525      2.06842691
  H     11.87081569      4.87185751      0.84089307
  H     10.77078454      5.48231859     -0.39553351
  H     11.00289483      3.73662036     -0.20140702
  H      5.94848310      2.02358739     -1.38545826
  H      4.82519785      2.79061171     -0.24711967
  H      5.99467131      1.54300483      0.32563948
 Cl      3.35424542      4.55138169     -0.19049074
 Cl      8.79606321      7.60388050      2.55227307
 Cl      4.62679752      4.93237006      5.83721967
 Cl    -22.58921019      3.18343996     35.50779469
 Cl      7.93613817      0.69775980      2.35147551

