#B3LYP/6-31+G(d) OPT FREQ

62, Energy =    -96.25781478 au

0 1
  N      8.68901382      7.73577894     -0.37051441
  C      7.41838984      7.44520254     -0.11524543
  N      6.64281869      8.34235827     -0.71213991
  C      7.44848257      9.23056216     -1.36791749
  C      8.73653886      8.85061141     -1.15457717
  C      9.84166148      7.00323341      0.09709256
  C     10.68094578      6.50415471     -1.07230614
  C      5.20842525      8.35116206     -0.64792238
  H      7.01005315      6.61223079      0.44849551
  H      7.05611723     10.05272904     -1.92988654
  H      9.67769620      9.25764333     -1.52216261
  H     10.44863333      7.67358218      0.71226804
  H      9.47856188      6.17620222      0.71257305
  H     11.51651436      5.92028413     -0.69605665
  H     11.07345035      7.35313346     -1.63282833
  H     10.08378386      5.87928158     -1.73280271
  H      4.85890460      9.22833933     -0.10184332
  H      4.89324469      7.44306603     -0.12201250
  H      4.78605236      8.36299954     -1.65285454
  N      5.16728088      3.66814466      4.33331136
  C      5.36266650      2.65482445      5.16808919
  N      6.65605081      2.37076344      5.21022199
  C      7.30956133      3.24293549      4.39623329
  C      6.37321141      4.06131855      3.84611405
  C      3.92160407      4.34222901      4.07336702
  C      3.86382927      5.64006095      4.87568482
  C      7.23640652      1.36004751      6.04379351
  H      4.61307646      2.07678542      5.68025815
  H      8.37408172      3.23475871      4.28454719
  H      6.45341220      4.85640369      3.13170770
  H      3.86893986      4.55963319      3.00292726
  H      3.10913693      3.66941116      4.35533966
  H      2.84715689      6.02270991      4.90494227
  H      4.50783342      6.38635154      4.41837244
  H      4.21610471      5.46433084      5.88984200
  H      7.50661487      1.79719631      7.00596397
  H      8.12439814      0.94988686      5.56592093
  H      6.48770308      0.57735060      6.19638831
  N      4.12235873      0.99844428     10.04875891
  C      4.36336874      2.07486575     10.78985174
  N      4.91075319      3.00771253     10.01551407
  C      5.01419490      2.51263554      8.74974900
  C      4.52133219      1.24664165      8.76799663
  C      3.51932010     -0.21644533     10.53957512
  C      2.21104471     -0.49846036      9.81061936
  C      5.34051677      4.32499302     10.39135133
  H      4.13811722      2.11993916     11.85099717
  H      5.44241913      3.11353128      7.96591256
  H      4.42876976      0.53634391      7.96229034
  H      4.21843838     -1.04223759     10.37778724
  H      3.35464360     -0.07925719     11.61410237
  H      1.77264794     -1.41786210     10.18879731
  H      2.38442320     -0.60468121      8.74201502
  H      1.50798725      0.31450234      9.97651703
  H      5.83018446      4.77368676      9.52275936
  H      6.03733658      4.27237038     11.22742073
  H      4.48600985      4.93576379     10.68468385
 Cl      6.56867233      4.87928579      7.18607883
 Cl     11.59930474      9.61646657     -2.30500603
 Cl      5.23893902      5.45934310      0.95178753
 Cl      3.42920437      1.20984200     13.68065968
 Cl      4.34451014     -0.36401643      5.92397451

