#B3LYP/6-31+G(d) OPT FREQ

62, Energy =    -96.26079589 au

0 1
  N      0.78010185      4.85387774      1.81485472
  C      1.85465098      4.16376897      1.43871162
  N      1.65596812      3.68865904      0.21504360
  C      0.42673651      4.07814015     -0.21205732
  C     -0.12353626      4.81179475      0.79446508
  C      0.62382464      5.54398194      3.07036326
  C      1.52523284      6.77214359      3.12482256
  C      2.56053733      2.87725603     -0.54559609
  H      2.71663188      3.93804943      2.04953813
  H      0.03012753      3.70374092     -1.13981073
  H     -1.07908801      5.28944249      0.86100541
  H     -0.42366326      5.83707017      3.16406597
  H      0.85938883      4.84155687      3.88231316
  H      1.39749018      7.27770248      4.07769493
  H      1.27705876      7.46949954      2.32521344
  H      2.56676473      6.48004586      3.02158454
  H      1.96557976      2.14417313     -1.10066357
  H      3.26829391      2.39599611      0.12526158
  H      3.10708666      3.49383512     -1.26028501
  N      0.93791744      0.48736829      3.35316161
  C      1.90256228      0.85650402      4.19057706
  N      1.78087954      0.17473803      5.32721665
  C      0.65492670     -0.58988811      5.23854512
  C      0.12671005     -0.39494965      4.00298395
  C      0.75278554      1.02796107      2.02594564
  C      0.45007519     -0.04024098      0.98997511
  C      2.58672479      0.33481923      6.50224299
  H      2.70681326      1.52317207      3.92054659
  H      0.31747753     -1.20043483      6.05093285
  H     -0.75283589     -0.80634406      3.55412390
  H     -0.05813270      1.76190830      2.06275697
  H      1.68110781      1.54164751      1.77991873
  H      0.31695651      0.43577780      0.01827760
  H     -0.46476912     -0.57798079      1.22536250
  H      1.27061661     -0.75011174      0.92039966
  H      2.50854171     -0.54442485      7.13725022
  H      2.25273391      1.20221316      7.07392070
  H      3.62886670      0.48459307      6.23017575
  N      4.82159737      3.01438494      6.59102841
  C      5.50329916      2.81454488      7.71575971
  N      6.56336686      2.04371476      7.45585002
  C      6.49919245      1.67944401      6.13838357
  C      5.41880443      2.29238364      5.59522883
  C      3.67759301      3.87465095      6.41880685
  C      4.01270947      5.02280618      5.47436712
  C      7.41358794      1.48644018      8.46547003
  H      5.31051253      3.29476746      8.65133428
  H      7.21866715      1.02383581      5.69378788
  H      5.04446895      2.28907555      4.58497449
  H      2.83620472      3.31414971      5.99552740
  H      3.38639227      4.24484324      7.40317827
  H      3.14405227      5.66626827      5.38294191
  H      4.25672560      4.62700816      4.49201828
  H      4.85439612      5.60787134      5.84338002
  H      7.94941667      2.27477734      8.99584523
  H      8.12332474      0.80036346      8.01000298
  H      6.76661405      0.95116898      9.16910914
 Cl      4.31104524      0.97345030      9.11038328
 Cl     -0.05858898      1.57676179     -2.06500475
 Cl      4.32167098      2.43875485      2.50663240
 Cl     29.08333803     31.31954658     -1.44563417
 Cl      0.64211493      2.99941070      5.14278854

