62
Energy =    -96.26868348 au
  N      4.89122196      4.97171929      6.88726437
  C      5.61618816      5.61676893      5.97885362
  N      6.69142045      4.89981051      5.68680819
  C      6.63665713      3.74969229      6.41755494
  C      5.50735866      3.79114217      7.17439261
  C      3.61442519      5.37202167      7.42401466
  C      2.52458809      4.43545633      6.91336158
  C      7.65749978      5.24750065      4.68654652
  H      5.40193648      6.58196045      5.56661039
  H      7.39078318      2.99344590      6.34371759
  H      5.08090170      3.09096533      7.88403275
  H      3.66339565      5.30399073      8.51368727
  H      3.42587137      6.40564441      7.12412549
  H      1.54546803      4.83261420      7.16599911
  H      2.64434949      3.46098213      7.38240234
  H      2.59985843      4.32886508      5.83397923
  H      7.19631380      5.13860627      3.70328439
  H      8.51978247      4.58979546      4.76600916
  H      7.96274903      6.29255465      4.81873594
  N      4.76292452      8.78448023      3.12108424
  C      3.64042592      9.43413225      2.82882235
  N      3.29991625     10.20217958      3.85736395
  C      4.23177851     10.03856389      4.83507198
  C      5.15418290      9.14800205      4.37483308
  C      5.43497293      7.83720598      2.26401610
  C      6.89680534      8.21237225      2.06469301
  C      2.15599901     11.06523923      3.91072336
  H      3.04505567      9.33987831      1.93351078
  H      4.14907890     10.53652844      5.77866391
  H      6.07866720      8.80599760      4.81652142
  H      5.35111487      6.83836202      2.71248765
  H      4.89980040      7.82808589      1.31110809
  H      7.38013576      7.46279678      1.44449432
  H      7.41879030      8.25809344      3.01904744
  H      6.98106802      9.18070616      1.57312533
  H      2.46389630     12.10241232      3.76810519
  H      1.68069090     10.97246804      4.89438493
  H      1.46890689     10.78246619      3.11535963
  N      0.27488376      8.23972336      4.25679878
  C      0.31267703      7.63298217      3.07474596
  N      1.41271111      6.89488768      3.00189889
  C      2.10123788      7.03330420      4.16920792
  C      1.38287386      7.87416998      4.96224658
  C     -0.77474810      9.09886752      4.74128118
  C     -1.92680465      8.27420775      5.30684676
  C      1.85861738      6.16918621      1.84828879
  H     -0.40455062      7.74940588      2.28905269
  H      3.02025307      6.49640140      4.31820158
  H      1.56982013      8.29663025      5.93164195
  H     -0.34071822      9.72754278      5.53064167
  H     -1.11707098      9.72405937      3.91448271
  H     -2.70005239      8.93919766      5.68002021
  H     -1.57299570      7.66185054      6.13274576
  H     -2.35717600      7.62428229      4.54518908
  H      1.12242199      5.41674818      1.56456545
  H      2.80601477      5.68385589      2.09014801
  H      1.98068734      6.87410377      1.02414453
 Cl      1.12331680     10.52032433      7.02318464
 Cl      3.83709321      2.00997058      9.32436402
 Cl      4.49351772      4.82540619      3.44282939
 Cl      8.23756169      8.44674793      5.31224974
 Cl      1.02995890      9.38835233      0.90726823
