#B3LYP/6-31+G(d) OPT FREQ

62, Energy =    -96.16602094 au

0 1
  N      7.26007931      7.24715949      7.99047634
  C      6.34031637      7.96962435      7.34649880
  N      5.35759925      7.16073377      6.95139966
  C      5.65420794      5.89717195      7.36430804
  C      6.84743044      5.95190587      8.01641982
  C      8.46496153      7.76457562      8.58445250
  C      8.14021735      8.60226411      9.81667697
  C      4.15663301      7.53529152      6.26474546
  H      6.46815202      9.00120724      7.07763204
  H      4.97926202      5.08434563      7.19701869
  H      7.44660023      5.18969865      8.48012911
  H      9.08632604      6.90915382      8.85738260
  H      8.96164352      8.38673613      7.83276202
  H      9.06204529      8.89233346     10.31283238
  H      7.52864171      8.02792247     10.51207800
  H      7.60145383      9.50235400      9.53062922
  H      3.29613960      7.14304634      6.82872914
  H      4.14505195      7.10427775      5.26313373
  H      4.10001337      8.61808799      6.19165646
  N      4.59654866      6.67433283     10.89535709
  C      5.74466199      6.77367854     11.64166615
  N      6.39205440      5.56543594     11.56859776
  C      5.68157743      4.76588904     10.70956386
  C      4.58346921      5.44514474     10.30263680
  C      3.62091709      7.70585602     10.67731812
  C      4.25779624      8.99951300     10.17843874
  C      7.68810281      5.26590927     12.10019347
  H      5.89151126      7.47943645     12.43385692
  H      6.02932464      3.78841559     10.44939069
  H      3.78951858      5.18236323      9.62898472
  H      2.91985925      7.32001727      9.92835429
  H      3.07793757      7.89901977     11.61185605
  H      3.47914277      9.72579525      9.96378897
  H      4.81630104      8.81280060      9.26532490
  H      4.93406001      9.41952732     10.92094437
  H      8.08374177      6.14112857     12.61144865
  H      8.37110503      4.98386099     11.29054605
  H      7.62752860      4.43437774     12.80741719
  N     11.41862080      6.34471256      6.99816758
  C     10.24203610      5.84251236      6.54675797
  N      9.79548475      6.63902293      5.54821179
  C     10.70843375      7.63345180      5.35742746
  C     11.71551840      7.45109724      6.24611078
  C     12.20550072      5.77596976      8.05562994
  C     13.29046051      4.84991883      7.50827832
  C      8.53482093      6.55303825      4.87522287
  H      9.70789438      5.04957605      7.02807088
  H     10.54468141      8.41269460      4.64362137
  H     12.60288021      8.02648128      6.41120580
  H     12.65899829      6.58884328      8.62973490
  H     11.52359426      5.21578717      8.70332693
  H     13.86849877      4.43461772      8.32903620
  H     13.96194769      5.39014542      6.84246401
  H     12.83513499      4.03116489      6.95705917
  H      8.67701002      6.30046280      3.82185157
  H      8.05274622      7.53541606      4.94697522
  H      7.91853506      5.79356552      5.35099973
 Cl      8.27215305     -0.75102563    -21.08477319
 Cl     10.90511085     -0.22731173    -20.87763534
 Cl      9.45282915      4.32186738      9.36109324
 Cl      2.04504149      5.98343925      8.21795183
 Cl      8.34537454      9.70311122      5.78949114

