62
Energy =    -96.26717030 au
  N      2.63588438      6.45478684      3.00890712
  C      3.37280654      6.98926863      2.04662327
  N      3.97397738      8.07491556      2.50860783
  C      3.63947039      8.22339371      3.81819858
  C      2.79849779      7.20496368      4.13622707
  C      1.86925868      5.24158915      2.91593374
  C      2.47964517      4.16549252      3.80704951
  C      4.88772220      8.92348921      1.80364437
  H      3.44914264      6.61329834      1.04782368
  H      4.04022860      9.03882852      4.38828874
  H      2.30664141      6.96285424      5.05895397
  H      0.83769982      5.45417241      3.21070809
  H      1.87540590      4.92902252      1.87103822
  H      2.03214080      3.19811068      3.59488045
  H      2.31662902      4.40886663      4.85327352
  H      3.55015031      4.11705433      3.61706967
  H      5.14226832      9.76265080      2.45124428
  H      4.42576352      9.28819549      0.88599247
  H      5.79012360      8.35936376      1.56148160
  N      1.84449174     10.42138017      5.47602665
  C      0.96944611      9.42232932      5.48338609
  N      0.52307904      9.23219797      4.24472863
  C      1.12714112     10.13070998      3.42243302
  C      1.95792037     10.88066052      4.19718986
  C      2.61921874     10.93095935      6.58169262
  C      2.38547632     10.15989917      7.86717187
  C     -0.39782724      8.21492948      3.82917506
  H      0.74387278      8.77424911      6.31355343
  H      0.96531029     10.09951246      2.36202267
  H      2.67340731     11.63691806      3.94569775
  H      3.67314184     10.89355620      6.26698640
  H      2.36146433     11.98785658      6.71770477
  H      3.09345173     10.49475055      8.61997989
  H      2.52613384      9.09356974      7.71462499
  H      1.37639433     10.32066461      8.24458732
  H     -0.32187089      7.36755538      4.50708516
  H     -0.13826840      7.92746959      2.80312427
  H     -1.42091139      8.59661381      3.84080872
  N      5.31721432      5.21440868      6.48855659
  C      4.09579323      4.95986802      6.94876135
  N      4.05807984      3.71369154      7.41219987
  C      5.27922416      3.14646430      7.23868703
  C      6.06910521      4.09141642      6.65870049
  C      5.78375091      6.44448564      5.88986594
  C      5.27680175      7.66447261      6.64104451
  C      2.93189642      3.04551072      7.99749203
  H      3.26283610      5.64559111      6.97074449
  H      5.47529802      2.15505183      7.60972761
  H      7.08929315      4.04270878      6.34043100
  H      6.87562357      6.41563469      5.90129508
  H      5.46987637      6.45604125      4.83736703
  H      5.63314535      8.56739002      6.15424232
  H      5.63638175      7.65667692      7.66945907
  H      4.19242790      7.69144144      6.65030806
  H      3.31371634      2.26249629      8.66303798
  H      2.32632003      2.58045195      7.21795240
  H      2.31933009      3.76163769      8.54076296
 Cl      4.85074127      0.71625300      9.40634559
 Cl      1.27316597      6.74117239      7.20080759
 Cl      0.87309832      8.15410393      0.80435304
 Cl      5.18506750     11.23827383      4.61687625
 Cl      5.61630853      5.35226816      2.75130583
