62
Energy =    -96.25971279 au
  N      5.63465882      2.01552510      6.92440066
  C      5.88839703      1.49559760      5.72866940
  N      7.16768198      1.67046316      5.44081242
  C      7.74754462      2.33574914      6.47561043
  C      6.78589481      2.55584968      7.41128549
  C      4.35054468      2.03556754      7.57899119
  C      4.44526544      1.50598369      9.00395855
  C      7.78175863      1.23423791      4.22253736
  H      5.21272487      0.93860910      5.10657208
  H      8.78095853      2.61338178      6.46429564
  H      6.83836232      3.03195281      8.37433403
  H      3.98469949      3.06696184      7.58663579
  H      3.67211941      1.42239242      6.98053936
  H      3.45598333      1.49231295      9.45368372
  H      5.09035411      2.13997787      9.60905779
  H      4.84357343      0.49410458      9.00259608
  H      8.85711048      1.14714054      4.36291362
  H      7.56507488      1.94982179      3.42871141
  H      7.34342130      0.26052825      3.96767661
  N      3.12940227      6.42048483      7.40405186
  C      2.82319304      6.53991512      8.69531760
  N      3.77930552      5.95339492      9.40774614
  C      4.71621217      5.45085796      8.55725562
  C      4.30775920      5.74205342      7.29349401
  C      2.34575729      6.93471031      6.30678712
  C      2.10524584      8.43121748      6.46022252
  C      3.85291169      5.83996911     10.83675717
  H      1.94312084      7.05868896      9.08211418
  H      5.57370293      4.92494476      8.93846852
  H      4.75744832      5.49493829      6.34670117
  H      2.89140535      6.70965520      5.38709550
  H      1.38322849      6.41459521      6.28746121
  H      1.55410612      8.80349882      5.60099851
  H      3.05104581      8.96394034      6.52782137
  H      1.52124375      8.62256840      7.35963979
  H      4.03482975      6.81709193     11.28503171
  H      4.67868273      5.16515951     11.07567860
  H      2.91682439      5.44680731     11.23085454
  N      9.18401914      5.77776810      5.27634043
  C      8.48431613      5.88271966      4.15141017
  N      8.79724324      4.87488100      3.34559553
  C      9.77632951      4.14168233      3.94377507
  C     10.01577396      4.70246230      5.15647212
  C      9.04580261      6.63430756      6.42417258
  C      8.02285552      6.05274745      7.39612905
  C      8.22159413      4.68498042      2.04948463
  H      7.70575422      6.59192534      3.96782998
  H     10.22273540      3.29274482      3.46747662
  H     10.70954596      4.43460442      5.92720255
  H     10.02591277      6.74654452      6.89541210
  H      8.72136963      7.61051285      6.05931297
  H      7.71594204      6.79957214      8.12145332
  H      8.42645045      5.19897542      7.93276087
  H      7.15026303      5.71987096      6.84052547
  H      8.64348802      3.79704363      1.58288351
  H      8.43618915      5.56626768      1.44158567
  H      7.14106508      4.57301870      2.16249195
 Cl      0.30076456      8.27293875      9.49221098
 Cl      5.84282159     -1.36763397      4.44862054
 Cl      6.65067007      3.78717548     10.61396836
 Cl      5.97095226      4.51185830      4.69104569
 Cl      9.98815821      7.60979856      2.91748022
