#B3LYP/6-31+G(d) OPT FREQ

62, Energy =    -96.26276332 au

0 1
  N      5.94598378      7.60426648      4.95463246
  C      5.00504891      8.53422857      5.08158069
  N      3.93562748      8.16703154      4.38167591
  C      4.22547686      7.00026985      3.73600064
  C      5.48360512      6.64329054      4.09978033
  C      7.22208740      7.62725152      5.61678920
  C      7.12990055      6.94025806      6.97759739
  C      2.74570206      8.95569368      4.28430896
  H      5.03663022      9.38091727      5.73154016
  H      3.52338935      6.51552800      3.08886378
  H      6.07930253      5.79479760      3.83188857
  H      7.95471052      7.12913600      4.97602835
  H      7.50721459      8.67642663      5.73127332
  H      8.01314870      7.16175449      7.57146401
  H      7.04651041      5.86316900      6.85853579
  H      6.24817480      7.30089029      7.50458807
  H      2.34990695      9.11881547      5.28821728
  H      2.00984958      8.44079563      3.67147974
  H      3.00114447      9.91844081      3.83565237
  N      8.60736639      0.18476405      1.30234516
  C      8.24363646      1.20157584      2.07598388
  N      8.02283617      2.26587149      1.31384017
  C      8.24946291      1.91285238      0.01405595
  C      8.61417366      0.60181633      0.00782193
  C      8.90108712     -1.16265581      1.72586056
  C      7.61859411     -1.88600046      2.12157600
  C      7.62251069      3.55475424      1.80672929
  H      8.13646323      1.22011703      3.15323376
  H      8.13528103      2.60701118     -0.79272691
  H      8.92552497     -0.08147729     -0.77179466
  H      9.37830939     -1.66372699      0.87150478
  H      9.58932741     -1.12224975      2.57375138
  H      7.85566051     -2.89746137      2.43791350
  H      6.94598028     -1.94154860      1.26883458
  H      7.11712296     -1.36817628      2.93801284
  H      6.64724386      3.82645056      1.40198602
  H      8.35045991      4.31357398      1.51788439
  H      7.56624771      3.48875400      2.89813754
  N      3.92225628      3.39101850      4.74576298
  C      2.73504144      3.99273633      4.76576125
  N      2.74106701      4.90587164      5.72922558
  C      3.95693881      4.88873778      6.34563759
  C      4.70047324      3.93330077      5.72545057
  C      4.33069325      2.34478616      3.83699880
  C      3.96633818      2.69601967      2.39985840
  C      1.66654443      5.79928353      6.05105446
  H      1.91634666      3.79503204      4.06966486
  H      4.18452435      5.59212444      7.12451668
  H      5.71156314      3.60397844      5.87521481
  H      5.41097280      2.21707624      3.96262340
  H      3.83152880      1.41296143      4.12505941
  H      4.33172921      1.92186215      1.72932357
  H      4.41071284      3.64929428      2.12201263
  H      2.88663423      2.77712694      2.28326238
  H      1.17798136      6.12189934      5.13484889
  H      2.08419628      6.65363840      6.59298973
  H      0.92969522      5.29816866      6.67901179
 Cl      9.97693042     -1.97095107     -1.30747963
 Cl      3.65237334      7.93331673      7.65092547
 Cl      0.51845376      3.52133686      2.57763192
 Cl      7.64463625      2.40176546      4.94482839
 Cl      5.91095885     10.30749010      3.42805977

