62
Energy =    -96.27470929 au
  N      8.46690282      4.67437035      6.09353816
  C      8.56889988      4.99582658      7.37764618
  N      7.52613111      5.74887283      7.71121846
  C      6.74176534      5.91432422      6.60947678
  C      7.33005003      5.23154480      5.59214346
  C      9.40062900      3.84259948      5.37564925
  C      8.70922150      2.59340467      4.84362586
  C      7.22647894      6.33058745      8.98955967
  H      9.40231894      4.68364655      7.99194788
  H      5.83808253      6.50152920      6.68118329
  H      7.00835926      5.09072157      4.57604135
  H      9.80987360      4.41806185      4.54203365
  H     10.20353502      3.59054608      6.07393073
  H      9.42652819      1.97934017      4.30432636
  H      7.89982668      2.86318281      4.16771330
  H      8.30179307      2.00997929      5.66601319
  H      8.00396011      7.04021665      9.27445135
  H      7.16080232      5.55497939      9.75291122
  H      6.26665412      6.84796085      8.89898534
  N      2.26937816      8.81184030      4.10747629
  C      2.07389868      7.52140015      4.36312902
  N      3.24176329      6.95560891      4.64792468
  C      4.20877205      7.90596331      4.58251386
  C      3.59967310      9.07221784      4.23934593
  C      1.29543994      9.81522469      3.74483232
  C     -0.11231956      9.25693090      3.66328377
  C      3.44260485      5.59352774      5.04723446
  H      1.14054591      6.98312286      4.27349429
  H      5.23301137      7.68662338      4.79558059
  H      3.99798782     10.05007983      4.06688765
  H      1.34257387     10.60913525      4.49847736
  H      1.60894065     10.25443044      2.78734482
  H     -0.78146096     10.03008396      3.29676599
  H     -0.45879957      8.93133039      4.64194151
  H     -0.16227010      8.40757828      2.98834264
  H      2.51976807      5.04052497      4.89168838
  H      3.70689439      5.58268047      6.10674638
  H      4.25483277      5.14845321      4.46936136
  N      2.69249878      5.90811660      1.50432732
  C      3.90618817      6.44363961      1.49841879
  N      3.80546935      7.72891774      1.17158879
  C      2.49170141      8.01811834      0.95689814
  C      1.79118926      6.87050756      1.16640680
  C      2.37582651      4.53484573      1.80116108
  C      2.11927430      3.75495635      0.51680535
  C      4.87790459      8.67767135      1.07063161
  H      4.80526367      5.90429252      1.77335379
  H      2.18955485      9.02065861      0.71483587
  H      0.73983336      6.66715626      1.18015352
  H      3.22167126      4.10605962      2.34025102
  H      1.47495157      4.54091495      2.42460985
  H      1.86555977      2.72786413      0.76375922
  H      3.01005329      3.75323142     -0.10919533
  H      1.29239673      4.19354506     -0.03822989
  H      4.44437191      9.68253273      1.13279769
  H      5.39097379      8.56899910      0.11379610
  H      5.59009145      8.51800677      1.87799799
 Cl     -0.39422272      5.69769998      3.26333295
 Cl      2.83470556     11.29399549      1.11796647
 Cl      4.26132072      7.63610209      7.74624810
 Cl     11.31987227      3.72313222      8.26555500
 Cl      5.93165582      4.31863799      2.68397296
