62
Energy =    -96.27306425 au
  N      2.73489816      2.81790647      5.09205607
  C      3.87122188      3.09790536      5.72066624
  N      4.60938474      1.99393088      5.79439394
  C      3.92167492      0.97612569      5.21055788
  C      2.74241868      1.49255653      4.77009012
  C      1.67124915      3.72645295      4.73465617
  C      2.10848888      5.17964335      4.81414814
  C      5.94327393      1.91138286      6.31450502
  H      4.18297100      4.05675531      6.08000224
  H      4.35699984     -0.00211173      5.13215233
  H      1.94428692      1.06280544      4.19903642
  H      1.36503306      3.45255473      3.71368632
  H      0.81724776      3.54325641      5.39681787
  H      1.37716442      5.80551010      4.31162359
  H      3.07069529      5.30736146      4.32509460
  H      2.19552491      5.51249072      5.84760206
  H      6.37027699      0.95267808      6.00098367
  H      5.93776530      1.97479214      7.40388004
  H      6.52407877      2.73595071      5.90361025
  N      6.40539156      1.68339170      2.46065263
  C      5.95399446      2.85540639      2.02604507
  N      4.65817747      2.74745077      1.75177711
  C      4.27031794      1.46817685      2.00502658
  C      5.36748905      0.79832709      2.44935846
  C      7.73088325      1.36054446      2.93690030
  C      8.49339737      2.59652486      3.38858193
  C      3.78468368      3.81420934      1.35451675
  H      6.52381052      3.75570909      1.93240425
  H      3.24300806      1.17719107      1.88551495
  H      5.49623778     -0.19982836      2.81815157
  H      7.59296181      0.64920942      3.76333621
  H      8.27588737      0.84246712      2.13958666
  H      9.33102793      2.30034303      4.01351043
  H      7.84085716      3.24794386      3.96441001
  H      8.87909929      3.16084726      2.54089380
  H      3.97364270      4.67604782      1.99358374
  H      2.75393784      3.46978525      1.47718861
  H      3.95791624      4.09118035      0.31371298
  N      7.23351506      5.56527513      6.93743862
  C      6.90835159      6.58429901      6.14106100
  N      5.64509792      6.93610018      6.38035336
  C      5.18470153      6.18543718      7.42128871
  C      6.17634283      5.33078679      7.77499034
  C      8.52489287      4.93388034      7.01092350
  C      9.36267693      5.56165825      8.12010128
  C      4.96977587      7.99918388      5.70129764
  H      7.48084634      6.90791890      5.29820543
  H      4.20082317      6.31589534      7.82521144
  H      6.21047120      4.57841468      8.53532971
  H      8.38165242      3.86224935      7.18223142
  H      9.01465973      5.07373749      6.04537498
  H     10.38624827      5.20294896      8.06930631
  H      8.94996435      5.32021932      9.09686903
  H      9.35030760      6.64276745      7.99769602
  H      5.58126974      8.90040594      5.78504367
  H      3.99490420      8.16650494      6.15476212
  H      4.84616142      7.73682935      4.64873723
 Cl      0.99199190      2.05435355      1.98851245
 Cl      7.97832483      8.58657413      7.21559468
 Cl      6.60891455     -1.03802294      4.95795539
 Cl      5.72607073      4.79470614      4.17175790
 Cl    -28.83711381     28.62559098      3.18243154
