62
Energy =    -96.24790100 au
  N      6.02879446      6.52576729      4.00405549
  C      6.06019037      5.62719782      3.02334691
  N      6.61262448      6.18695767      1.95037252
  C      6.93457784      7.47501140      2.23797315
  C      6.56748465      7.68740165      3.53044544
  C      5.51347041      6.33691566      5.34154043
  C      5.86802529      4.96556038      5.89769709
  C      6.84411199      5.56174181      0.67949670
  H      5.73392316      4.58898923      3.08471900
  H      7.43556600      8.08735117      1.50480418
  H      6.63811176      8.56593751      4.13712436
  H      5.94570795      7.12229870      5.96814519
  H      4.42547161      6.49610183      5.34130224
  H      5.40350931      4.84232185      6.87200026
  H      6.94674717      4.86766652      6.01081588
  H      5.52372650      4.16624932      5.24631009
  H      7.21642533      4.54996340      0.82866701
  H      7.56832426      6.17347707      0.13135773
  H      5.91418774      5.51184814      0.11114944
  N     -0.90835067      2.92172901      9.64119775
  C     -0.07106513      2.69647765     10.65456445
  N     -0.36675569      3.53420298     11.65722913
  C     -1.33498825      4.39706636     11.20052891
  C     -1.67816345      4.01304244      9.94938058
  C     -0.89927799      2.22621608      8.37758620
  C     -2.30865823      1.87685306      7.92330068
  C      0.45538091      3.69930416     12.81939491
  H      0.55912763      1.83690977     10.74966594
  H     -1.69903902      5.20441987     11.80052567
  H     -2.41566155      4.41441622      9.26403038
  H     -0.42245328      2.86619369      7.63021151
  H     -0.28509371      1.32984945      8.50223299
  H     -2.26242462      1.34549889      6.97684415
  H     -2.89679099      2.78285329      7.78103074
  H     -2.80579708      1.24505956      8.65704507
  H      0.07628199      4.52138326     13.42197647
  H      1.47145188      3.92164253     12.47870477
  H      0.46933709      2.78346497     13.41337347
  N      1.28585223      4.55425125      5.84491408
  C      1.53954701      5.26378109      6.94168517
  N      0.38878470      5.66053911      7.47966361
  C     -0.63232913      5.24699221      6.67356731
  C     -0.06826617      4.55144090      5.65234771
  C      2.28208151      3.94344627      5.00030349
  C      2.81509228      2.65217380      5.60398892
  C      0.28305063      6.48938066      8.64316357
  H      2.49883407      5.37862859      7.40041934
  H     -1.66685086      5.43016773      6.90481268
  H     -0.52019850      4.06846342      4.81086990
  H      1.83517696      3.74832141      4.02431532
  H      3.09557610      4.65767577      4.86864698
  H      3.63902341      2.30217767      4.98601818
  H      2.04062364      1.88742851      5.63639548
  H      3.17954132      2.82422421      6.61360402
  H     -0.76761086      6.64442114      8.87557222
  H      0.77240466      7.44382527      8.43925627
  H      0.78651457      5.99856428      9.47804028
 Cl      8.74796013      8.13355225     -0.39747255
 Cl      5.37122551      2.51807831      3.26339733
 Cl     -3.87984397      5.00433656      7.82103932
 Cl      2.07674096      3.74003800      9.96874990
 Cl      2.37115440      7.47661717      5.86399213
