62
Energy =    -96.28691066 au
  N      6.69198247      3.95162356      2.18572371
  C      6.98647888      2.94944096      1.36319749
  N      7.01622926      3.40858452      0.11887127
  C      6.73687716      4.73887091      0.14049808
  C      6.53190713      5.08098265      1.44213309
  C      6.50526605      3.84724014      3.61209438
  C      7.59031848      4.60266730      4.37335959
  C      7.22238359      2.61388303     -1.05643496
  H      7.09131704      1.89358872      1.62110939
  H      6.65621322      5.31204341     -0.75911570
  H      6.25616736      6.01610377      1.88217470
  H      5.51791934      4.26394696      3.85280453
  H      6.52691188      2.78784760      3.86799289
  H      7.44062831      4.46939933      5.44110395
  H      7.53783576      5.66524694      4.15323176
  H      8.57885071      4.23357619      4.10830174
  H      8.18867435      2.84258031     -1.50749118
  H      6.43014798      2.85269647     -1.77246184
  H      7.18813941      1.56449698     -0.77275148
  N      1.64897785      4.98076650      0.12260562
  C      1.31549374      4.70607591      1.38171086
  N      0.99056644      3.42357675      1.47423385
  C      1.11507732      2.85709299      0.24413720
  C      1.53349590      3.83578748     -0.60561789
  C      2.16474663      6.24875810     -0.33120558
  C      3.61250768      6.40079258      0.11704890
  C      0.63716220      2.73099495      2.67957030
  H      1.37037559      5.38944757      2.20701002
  H      0.94188612      1.80344655      0.11435949
  H      1.80955613      3.79596524     -1.63957127
  H      2.10900817      6.26887439     -1.42125819
  H      1.53912133      7.04600493      0.08264739
  H      3.96689207      7.40614797     -0.09173101
  H      4.22172417      5.68658714     -0.42953974
  H      3.69805025      6.19914680      1.18197366
  H      1.28816490      3.07242420      3.48315026
  H      0.76657476      1.65851607      2.49906794
  H     -0.40197663      2.92781271      2.94630191
  N      4.08059797      0.79508929      0.07536038
  C      3.93590638      0.24718749      1.27341389
  N      3.87325709      1.20501713      2.18717085
  C      3.97821268      2.40588513      1.55276889
  C      4.11253468      2.15128835      0.22615653
  C      4.20894875      0.07576859     -1.16619108
  C      3.37249550      0.71027214     -2.26886132
  C      3.71466821      1.01385367      3.59709949
  H      3.89512786     -0.80150402      1.47900342
  H      3.91493731      3.33531758      2.08584684
  H      4.22848334      2.82579038     -0.60186854
  H      5.26655863      0.05432244     -1.44924379
  H      3.87886149     -0.94892723     -0.98182035
  H      3.45158544      0.11352697     -3.17377813
  H      3.71304104      1.71859889     -2.48709381
  H      2.32966202      0.74692467     -1.96269672
  H      3.61029133      1.98752926      4.07205933
  H      4.58810327      0.49791406      4.00066311
  H      2.82394265      0.41204474      3.78237917
 Cl      3.37539476      5.06929822      3.60647351
 Cl      4.59429090      4.20880262     -2.41804666
 Cl      1.13758181     -0.23251737      1.28897795
 Cl     24.22793946     -5.76062142     37.41013177
 Cl      6.81269433     -0.14297659      1.52717968
