#B3LYP/6-31+G(d) OPT FREQ

62, Energy =    -96.25363062 au

0 1
  N      3.09094885      0.90065877      7.54997189
  C      3.56522864      2.13624985      7.38668571
  N      4.76825555      2.21195418      7.95575698
  C      5.07554891      0.99695077      8.48605774
  C      4.02648884      0.17209734      8.22884102
  C      1.82508866      0.43592448      7.04139288
  C      2.02088296     -0.43459920      5.80507025
  C      5.61708817      3.36695047      8.03604469
  H      2.98771882      2.92082434      6.91555823
  H      6.03208593      0.83826818      8.95738541
  H      3.87772145     -0.85756677      8.47964816
  H      1.31729629     -0.13069446      7.82632097
  H      1.23804266      1.32767490      6.79224456
  H      1.05366220     -0.73769143      5.41607586
  H      2.59884888     -1.32517391      6.04069581
  H      2.54013421      0.12733309      5.03554226
  H      6.61033385      3.02719861      8.34949395
  H      5.22972686      4.07002273      8.77478668
  H      5.66906429      3.85986538      7.06660549
  N      9.37251053      4.62946328      9.69188415
  C      9.72070144      3.66302104     10.54166226
  N      8.79550872      3.57253357     11.49597522
  C      7.87606880      4.55985094     11.29336651
  C      8.23207188      5.21948452     10.16459427
  C     10.08879194      4.97958028      8.49554445
  C      9.45028452      4.31804637      7.27674804
  C      8.85504823      2.64095494     12.58045060
  H     10.48699047      2.93789650     10.36690056
  H      7.04965983      4.71085624     11.95706755
  H      7.77642908      6.05106207      9.66817099
  H     10.09236734      6.06891918      8.39427565
  H     11.11819133      4.64068370      8.62569469
  H     10.10608002      4.39827231      6.41450085
  H      8.49816806      4.78802879      7.04088497
  H      9.26752339      3.26767702      7.49144719
  H      8.75413412      1.62626187     12.18976247
  H      8.05094642      2.84506880     13.28441344
  H      9.82230293      2.74823708     13.07618076
  N      2.05647107      6.56120358      7.11523798
  C      0.72736307      6.65494628      7.05753923
  N      0.34814539      6.64913808      5.77912492
  C      1.47089869      6.65367366      5.00320663
  C      2.53721853      6.59511835      5.83634885
  C      2.83423416      6.55962997      8.32554394
  C      2.38821428      5.43598311      9.25879469
  C     -1.00662345      6.80911581      5.34606554
  H      0.06592455      6.51437079      7.88492666
  H      1.42214223      6.67409751      3.93398167
  H      3.58559680      6.56212563      5.62315965
  H      3.88234926      6.43420147      8.04162017
  H      2.70943800      7.53600735      8.80691572
  H      3.16814703      5.20774273      9.98157521
  H      2.16184087      4.54627464      8.67355879
  H      1.49043448      5.72263888      9.79919381
  H     -1.61499139      5.98015259      5.71643377
  H     -1.04155004      6.82703255      4.25755209
  H     -1.38969305      7.75159294      5.75012686
 Cl     11.51933044      4.78713970     11.84958865
 Cl      0.97118010      3.61808050      6.44901138
 Cl     14.55585008     34.92391148    -24.33431471
 Cl      8.16025993      1.56309091      9.19101729
 Cl      0.38703529      9.06429483      7.57361810

