62
Energy =    -96.23654856 au
  N      9.80327156      0.78175309      8.31269485
  C      8.65985227      1.02124210      8.95016602
  N      8.33649268     -0.04498954      9.67970085
  C      9.30592368     -0.98995485      9.50428824
  C     10.21992836     -0.47073939      8.64117259
  C     10.48098376      1.63328976      7.37026090
  C     11.71188818      2.28490434      7.99168398
  C      7.15194173     -0.17512804     10.47934092
  H      8.06550365      1.91694324      8.91376557
  H      9.26273200     -1.94993895      9.97581448
  H     11.10283328     -0.90670481      8.22458871
  H     10.75932214      1.00133624      6.52344924
  H      9.79241744      2.40404729      7.01941004
  H     12.14915088      2.96630737      7.26803429
  H     12.45492857      1.54149341      8.27021910
  H     11.43614749      2.85361982      8.87751796
  H      7.41448326     -0.45443746     11.50040639
  H      6.49611836     -0.93949430     10.05932455
  H      6.63218443      0.78601296     10.48345104
  N      6.31057027      2.98136763      6.25746481
  C      7.09959192      2.97449143      5.18631710
  N      7.66706630      1.77770744      5.07440953
  C      7.22290500      0.99302012      6.09572819
  C      6.36727955      1.74692102      6.83571852
  C      5.55730651      4.09384892      6.77502979
  C      4.12559741      4.08613438      6.24888307
  C      8.66805674      1.39231556      4.12024993
  H      7.26145955      3.80499692      4.53214552
  H      7.60560854     -0.00520661      6.21677328
  H      5.83751482      1.54137843      7.74350831
  H      5.55916944      3.99402447      7.86560313
  H      6.07444817      5.01340627      6.49359002
  H      3.57433266      4.91757255      6.67928075
  H      3.62889553      3.16152098      6.53234984
  H      4.10698629      4.17790929      5.16432079
  H      9.11279815      0.45421495      4.46346605
  H      9.43014718      2.16984177      4.07461095
  H      8.23108545      1.25451636      3.13081027
  N      8.80664942      7.68209110      7.28939113
  C      9.43266062      6.60989375      7.82705603
  N      8.57530345      5.96734359      8.64117012
  C      7.38152499      6.61945599      8.59814884
  C      7.51366325      7.67986973      7.75867188
  C      9.33160007      8.50008811      6.22644603
  C      8.92491301      7.94224482      4.86313983
  C      8.86311453      4.72937594      9.29952692
  H     10.43605520      6.30371969      7.61979627
  H      6.53183334      6.27498000      9.15388531
  H      6.80037593      8.42639093      7.46200156
  H      8.96540702      9.52522191      6.35395710
  H     10.42221712      8.49886566      6.31587141
  H      9.46854417      8.45176286      4.07077824
  H      7.85600843      8.06933540      4.69810998
  H      9.15857520      6.87798049      4.83167874
  H      9.32943459      4.06803383      8.57148846
  H      7.93563096      4.27371077      9.65235381
  H      9.54111147      4.88257278     10.13999270
 Cl      9.29856908      4.54766907      5.89254014
 Cl      5.26230463     37.17677371     -1.17671196
 Cl      9.53405683     -1.28198271      5.98697071
 Cl      6.09289202      2.97443719      9.93662781
 Cl    -17.47844800    -23.55806525     -6.24318037
