#B3LYP/6-31+G(d) OPT FREQ

62, Energy =    -96.26606336 au

0 1
  N      7.96156932      4.68772157      6.61517391
  C      7.19423572      4.49582285      5.54745893
  N      7.95931382      4.19236833      4.51081677
  C      9.25123264      4.18260361      4.91913150
  C      9.25572106      4.49895074      6.24052948
  C      7.50083971      5.06618697      7.93054020
  C      8.25572874      4.32172755      9.02496563
  C      7.50005033      3.87578840      3.19285222
  H      6.11788647      4.56388035      5.51600762
  H     10.05853767      3.95176754      4.25701216
  H     10.07374372      4.61733490      6.91863397
  H      7.62806830      6.14799477      8.04205077
  H      6.43457125      4.83894497      7.98014961
  H      7.64212195      4.26308518      9.92130500
  H      9.19187464      4.81674914      9.27084459
  H      8.46997263      3.30560363      8.70293109
  H      6.42206436      4.01364782      3.15290423
  H      7.75689966      2.83415526      2.98494055
  H      7.98274244      4.53000712      2.46679756
  N      4.49286787      2.39250238      7.97554385
  C      4.19258511      2.12648088      6.70790609
  N      5.27825646      1.67758772      6.09138501
  C      6.30407981      1.65636068      6.98790826
  C      5.80822734      2.09799486      8.17656475
  C      3.59476591      2.90534419      8.97985464
  C      2.57733138      1.84710526      9.39171748
  C      5.37420110      1.34790372      4.69944466
  H      3.24070139      2.28298784      6.24454820
  H      7.28567649      1.35071799      6.67634139
  H      6.24468208      2.24825608      9.14840135
  H      4.20926209      3.18800066      9.84568338
  H      3.08936869      3.78550072      8.57459630
  H      1.92356097      2.25352139     10.15816317
  H      3.09214454      0.98277965      9.80462407
  H      1.97144750      1.52900532      8.54389816
  H      4.81608037      0.43578021      4.48276254
  H      6.42990767      1.20176506      4.45420500
  H      4.95541847      2.17234000      4.12242115
  N      5.22496119      8.22173071      4.12193929
  C      6.26468220      8.64319712      3.41403981
  N      5.82177044      9.31497079      2.35471502
  C      4.46154807      9.32445652      2.38439002
  C      4.08630417      8.63675768      3.49766332
  C      5.32001933      7.49042230      5.36130828
  C      4.85392253      8.34285288      6.53535321
  C      6.61088090      9.93024642      1.32540189
  H      7.28972722      8.42211343      3.69084855
  H      3.90864969      9.85688943      1.62750596
  H      3.11350697      8.39789590      3.87389185
  H      4.71359434      6.58272566      5.28514268
  H      6.37200143      7.21965120      5.48461744
  H      4.91891017      7.75897737      7.44881853
  H      3.82196919      8.66246548      6.40233878
  H      5.48498255      9.22343748      6.63856632
  H      7.42750077     10.49719904      1.76890889
  H      5.95104203     10.59134203      0.74908297
  H      7.02693907      9.16970545      0.66362615
 Cl      3.89086768      4.41990825      5.00102695
 Cl      8.74380610      7.36691523      4.92278696
 Cl      5.88984144      3.19446157     11.34888824
 Cl      4.04354873     11.52871558     -0.01112941
 Cl      8.68723971      1.06262410      4.62172613

