62
Energy =    -96.25415824 au
  N      4.73187678      0.83701120      3.03488018
  C      5.62613371     -0.12010685      3.25904489
  N      5.97312912     -0.66833532      2.09996189
  C      5.29184909     -0.04518178      1.10147448
  C      4.51075321      0.90230739      1.68775802
  C      4.12387657      1.66453760      4.05142244
  C      4.66608322      3.08796733      4.00806697
  C      6.89382143     -1.75161737      1.89425611
  H      5.96916287     -0.38611136      4.24950107
  H      5.44727950     -0.35507200      0.07488882
  H      3.82328299      1.59969898      1.25657151
  H      3.04182006      1.67358589      3.89556366
  H      4.34558879      1.20499227      5.01671364
  H      4.09397916      3.70881071      4.69183811
  H      4.57946606      3.50564414      3.00666144
  H      5.71040533      3.10391701      4.30875796
  H      6.95185830     -1.93382940      0.81228889
  H      6.53803466     -2.64764593      2.40211780
  H      7.87769657     -1.49068509      2.28305364
  N      5.67395419      2.05032619      9.21193812
  C      5.59857129      2.47745794     10.47025774
  N      6.61659208      1.96764495     11.16223975
  C      7.36048165      1.19377676     10.31393194
  C      6.76877989      1.25282875      9.09068214
  C      4.79770285      2.44626096      8.13695072
  C      5.13822428      3.85509380      7.67179873
  C      6.86484123      2.23084165     12.54983050
  H      4.85367587      3.12977738     10.90849229
  H      8.23896797      0.67210650     10.63380082
  H      6.98524437      0.75920609      8.15845781
  H      4.92221994      1.71896439      7.33064175
  H      3.76889248      2.41388943      8.49815786
  H      4.34279479      4.22316479      7.03075580
  H      6.07629989      3.86680022      7.12283756
  H      5.21624347      4.52539496      8.52680459
  H      6.03228242      2.82325412     12.93244846
  H      7.79097682      2.79614375     12.67023144
  H      6.94586506      1.29820625     13.10791372
  N      2.26870290      7.21976519      8.36502349
  C      1.56436641      6.10546038      8.60322489
  N      2.15398283      5.42851532      9.58917761
  C      3.31423335      6.07151597      9.92355153
  C      3.38811627      7.18559379      9.15721019
  C      1.98987238      8.13906820      7.29409852
  C      0.77828593      9.01269173      7.60267292
  C      1.73019565      4.16718088     10.12892731
  H      0.58299166      5.90737319      8.22816889
  H      3.94735015      5.69098628     10.70683698
  H      4.13292792      7.95269160      9.11249928
  H      2.87650163      8.75705449      7.13945690
  H      1.81293078      7.53755125      6.39511292
  H      0.63583153      9.73496819      6.80430818
  H      0.91894077      9.54990660      8.53843494
  H     -0.11770045      8.40361759      7.68308442
  H      0.68448721      4.21775388     10.43394343
  H      2.35433829      3.93922775     10.99443999
  H      1.83463497      3.39119795      9.36789921
 Cl    -19.68213306     35.66977576      3.23882855
 Cl      2.08087616      4.90470756      6.45844326
 Cl      5.88357818     -0.30053160      6.42240276
 Cl      6.49449828     -1.66143400     -1.36443581
 Cl      4.13607066      4.30827385     12.60715370
