#B3LYP/6-31+G(d) OPT FREQ

62, Energy =    -96.29412588 au

0 1
  N      4.97648387      8.40421800      6.96554116
  C      4.12279862      9.24713766      7.53559164
  N      4.13267363      9.05081983      8.84935846
  C      5.01877779      8.05535689      9.12690679
  C      5.55298392      7.65236540      7.94120258
  C      5.21556962      8.28995506      5.54982078
  C      6.39216004      9.16124808      5.12402234
  C      3.32398577      9.71845925      9.82506017
  H      3.46201010      9.89534933      6.98358811
  H      5.14128166      7.68409175     10.12343811
  H      6.23598634      6.86073122      7.70723661
  H      5.42089221      7.23643808      5.33785378
  H      4.30188116      8.60309789      5.04083721
  H      6.56270040      9.04305351      4.05811412
  H      7.29622509      8.86811692      5.65371860
  H      6.18569770     10.21016269      5.32870309
  H      3.92898023     10.40789871     10.41606771
  H      2.90666127      8.95036322     10.49144236
  H      2.53038909     10.26632736      9.32410217
  N      0.97346325      6.75860950      8.39266508
  C      1.42242908      5.69913668      9.05410930
  N      2.57463976      5.31483534      8.52859735
  C      2.87938075      6.15558296      7.50283800
  C      1.87525293      7.06695175      7.41642848
  C     -0.28301120      7.41356663      8.64671674
  C     -0.18524506      8.35620943      9.84266479
  C      3.41643005      4.25814965      9.00508702
  H      0.92291792      5.22256368      9.87152821
  H      3.76372621      6.00286736      6.91383909
  H      1.74754507      7.90347569      6.75507731
  H     -0.56379833      7.96140801      7.74452326
  H     -1.02289643      6.62967753      8.82871425
  H     -1.17549998      8.58418814     10.22720585
  H      0.29971536      9.28477412      9.55468966
  H      0.40573891      7.89246133     10.62893838
  H      3.74957474      4.50277392     10.01558448
  H      4.27613706      4.17465358      8.34304485
  H      2.86428740      3.31849909      9.02439576
  N      2.22850781      4.70883752      4.88787108
  C      1.01890126      5.23624463      5.03293386
  N      0.99221382      6.41940931      4.42899535
  C      2.21721532      6.64843472      3.87801458
  C      2.99414219      5.56882174      4.16422246
  C      2.65779938      3.44921227      5.43903849
  C      2.55864401      2.33790333      4.39998707
  C     -0.10657232      7.34056647      4.41516870
  H      0.24893562      4.80731890      5.66974559
  H      2.44175898      7.56449607      3.37321006
  H      4.03011524      5.37194056      3.97720583
  H      3.69427190      3.57470404      5.76632981
  H      2.01122452      3.23068986      6.29121290
  H      2.89865224      1.40321062      4.83590058
  H      3.18166758      2.56438989      3.53718312
  H      1.52824389      2.21404078      4.07239978
  H     -0.55221985      7.39317495      3.42028715
  H      0.27353738      8.33149968      4.68615902
  H     -0.85461033      7.01404043      5.13342406
 Cl     -0.37531813      4.02603940      7.52327810
 Cl      5.67496552      4.95338054      5.95865334
 Cl     42.90362100     -8.92027384    -33.17554844
 Cl      2.77009038      6.88970397     11.28593741
 Cl      1.96611734      9.78817576      5.24722155

