62
Energy =    -96.29498607 au
  N      4.85890209      8.51930030      7.27132756
  C      4.03607431      9.34306805      7.91081682
  N      4.02086823      9.02518042      9.20020695
  C      4.85602351      7.96722120      9.39017474
  C      5.38650117      7.65251911      8.17628872
  C      5.12755581      8.53755924      5.85669305
  C      6.34775497      9.39860949      5.54753814
  C      3.23347954      9.63758600     10.22810052
  H      3.41472254     10.07263554      7.41906018
  H      4.94850554      7.49778200     10.34753192
  H      6.03976383      6.85889475      7.87335490
  H      5.30093563      7.50367667      5.54370292
  H      4.24038481      8.93692615      5.36205699
  H      6.53747269      9.38629847      4.47840351
  H      7.22654699      9.01135259      6.05879213
  H      6.18068699     10.42800946      5.85949909
  H      3.87208570     10.19046395     10.91876216
  H      2.73064107      8.82998982     10.78026239
  H      2.50858537     10.31086337      9.77832674
  N      0.83365597      6.87023605      8.27658596
  C      1.17565913      5.75105567      8.89913783
  N      2.33553545      5.32318464      8.42397598
  C      2.75730563      6.19980259      7.47253847
  C      1.81345272      7.17116443      7.37358021
  C     -0.41564210      7.57035121      8.42773257
  C     -0.20883294      9.06680585      8.60945236
  C      3.07966434      4.19414251      8.89619170
  H      0.59818221      5.26049847      9.65470815
  H      3.67324075      6.03654686      6.93548455
  H      1.77975999      8.04792478      6.75601949
  H     -1.02666959      7.36452606      7.54260938
  H     -0.92423765      7.14769852      9.29643803
  H     -1.17346453      9.56171825      8.68831530
  H      0.33052866      9.49345778      7.76770236
  H      0.35259055      9.24677026      9.52212030
  H      3.34851037      4.36431522      9.94083523
  H      3.98053543      4.09560771      8.29417963
  H      2.47708508      3.28881368      8.81946659
  N      2.19720855      5.15621831      4.63906079
  C      0.99298135      5.69967807      4.77039373
  N      1.02598040      6.93664103      4.28655449
  C      2.28501977      7.18436042      3.82727675
  C      3.02081998      6.06097039      4.04611541
  C      2.56639867      3.83708026      5.08451658
  C      2.48972736      2.83416362      3.93861611
  C     -0.04946451      7.88493023      4.30872703
  H      0.18105284      5.23056198      5.32303378
  H      2.55662945      8.13658060      3.42240749
  H      4.06104496      5.85466279      3.89604354
  H      3.58861012      3.89852883      5.46989827
  H      1.87331537      3.55756816      5.88050436
  H      2.78198045      1.85166027      4.29717530
  H      3.16151629      3.12247601      3.13269343
  H      1.47420604      2.77507930      3.55195138
  H     -0.40363517      8.08814123      3.29679415
  H      0.32000952      8.81735626      4.74956999
  H     -0.86409520      7.48617918      4.90766093
 Cl     -0.57379398      4.31024628      7.04071329
 Cl      5.59847022      5.18159732      5.88075014
 Cl     48.87619848    -11.66737878    -38.73669288
 Cl      2.46086423      6.69738385     11.25094386
 Cl      1.94300170     10.18410541      5.64534838
