#B3LYP/6-31+G(d) OPT FREQ

62, Energy =    -96.25341893 au

0 1
  N      4.65837892      6.65319670      2.49870706
  C      5.21449124      5.45553831      2.66428079
  N      5.71033751      5.04859444      1.49921125
  C      5.46085404      5.99615575      0.55860625
  C      4.80015036      7.00546374      1.18826378
  C      4.00680838      7.45734340      3.50630587
  C      4.74698598      7.40686459      4.83449021
  C      6.40206365      3.81769161      1.24143798
  H      5.28242212      4.90275014      3.59448213
  H      5.83130819      5.87163180     -0.44737607
  H      4.41191358      7.92650457      0.80642981
  H      3.97410463      8.48342102      3.13108219
  H      2.96462955      7.12940991      3.61573662
  H      4.19673917      7.98249712      5.57378319
  H      5.74316260      7.83433657      4.73116555
  H      4.85165649      6.38702892      5.19315652
  H      7.09113409      3.60236450      2.05543172
  H      6.93705506      3.92805548      0.29100730
  H      5.68921042      2.99647430      1.15777339
  N     -0.10242456      3.28847486      9.82133432
  C      0.37973470      2.05311701      9.69500523
  N      0.63597810      1.55673443     10.90041038
  C      0.30500172      2.49603116     11.82538322
  C     -0.15941119      3.58332999     11.14654026
  C     -0.54801152      4.15614870      8.76095040
  C     -2.05145965      4.01846293      8.54889661
  C      1.14554976      0.25748608     11.21686626
  H      0.53895184      1.54428800      8.76481522
  H      0.35111537      2.27114012     12.87257223
  H     -0.46370345      4.55331362     11.48356618
  H     -0.29333031      5.18184664      9.06928843
  H     -0.00849481      3.89496543      7.84816013
  H     -2.37030930      4.68934542      7.75688585
  H     -2.58325595      4.28244609      9.45879134
  H     -2.31636279      2.99897654      8.27224087
  H      1.05621325     -0.40178110     10.35726272
  H      0.54944941     -0.11810723     12.07133929
  H      2.18908797      0.32502751     11.52382931
  N      2.72066691      5.48569721      7.13315851
  C      1.70930271      6.32152639      7.35925169
  N      0.94305829      6.36460567      6.27596390
  C      1.47857389      5.54260028      5.33119033
  C      2.59685945      4.98709843      5.87261479
  C      3.77455455      5.15725894      8.06141496
  C      3.22955701      4.34444529      9.23033319
  C     -0.22717326      7.16692294      6.07894347
  H      1.49569520      6.80173102      8.30400901
  H      1.05966753      5.49192078      4.34587300
  H      3.34162418      4.32521733      5.46779064
  H      4.53370295      4.60355158      7.50042627
  H      4.21190753      6.08633480      8.43480169
  H      4.03291535      4.12246677      9.92657933
  H      2.81165654      3.40457117      8.87502673
  H      2.45852132      4.90819254      9.75302918
  H     -1.12324661      6.54770958      6.13617158
  H     -0.16131544      7.60047649      5.07188834
  H     -0.27464066      7.94016068      6.84078777
 Cl      7.40721118      4.84213100     -1.76396750
 Cl      5.61630351      3.85425681      5.48145230
 Cl      0.69410602      7.55641905      2.98568819
 Cl     -0.80168773      0.08077047     13.68010717
 Cl      0.61820920      6.72999780     10.34503123

