62
Energy =    -96.15784593 au
  N      8.23066244      7.23489904      5.15935482
  C      8.19323876      8.56209436      5.16647705
  N      9.40928998      9.03783852      5.40548692
  C     10.24940276      7.97934686      5.58042150
  C      9.51380700      6.84957355      5.42251070
  C      7.12174696      6.36599284      4.86490793
  C      7.19051748      5.90025875      3.41430705
  C      9.72792645     10.43138085      5.50023255
  H      7.32679447      9.15733071      4.96697899
  H     11.28819944      8.10789362      5.80522095
  H      9.79650915      5.81955715      5.49060219
  H      7.14924656      5.51813346      5.55592406
  H      6.20654796      6.93342767      5.04538851
  H      6.25900941      5.42569884      3.12300873
  H      8.00352787      5.19113348      3.27875705
  H      7.37155664      6.76003771      2.77387712
  H      9.49377528     10.91732428      4.55125401
  H     10.78549635     10.55130691      5.72423839
  H      9.12887074     10.87946729      6.29592300
  N      4.00935953      9.04991498      9.18588359
  C      2.78847390      8.82339419      9.74108451
  N      2.85809546      7.66650361     10.46891833
  C      4.15379392      7.20526768     10.37735462
  C      4.85074089      8.05831561      9.59018287
  C      4.38575406     10.18183621      8.38260467
  C      4.56970665     11.43313360      9.23737759
  C      1.80424779      7.09646077     11.24961260
  H      1.90477976      9.39769481      9.57717199
  H      4.46538558      6.30994901     10.87314520
  H      5.87009556      8.04041842      9.24915423
  H      5.33305387      9.92485348      7.89696148
  H      3.61568161     10.35184051      7.62408609
  H      4.86311106     12.26518873      8.60459020
  H      5.35390951     11.26660871      9.97124928
  H      3.64880779     11.69339208      9.75633897
  H      1.77781703      7.52421942     12.25799820
  H      1.95535025      6.02059013     11.33375282
  H      0.84350273      7.28370953     10.76927214
  N     10.16559296      7.58900222     -1.39174853
  C      9.92747815      7.59851604     -0.05204128
  N     10.97308582      7.00316083      0.56883633
  C     11.86591855      6.60858369     -0.38531898
  C     11.37679071      6.97808400     -1.59481279
  C      9.36793904      8.27179763     -2.37217316
  C      9.69442232      9.76443433     -2.40945369
  C     11.08660695      6.85323099      1.98948979
  H      9.12728341      8.08835172      0.47101705
  H     12.77734936      6.10250425     -0.14041993
  H     11.78724390      6.84531195     -2.57455359
  H      9.55411723      7.81573131     -3.34812936
  H      8.31514973      8.13499581     -2.11185206
  H      9.06499626     10.26372974     -3.14050430
  H     10.73666128      9.92242804     -2.67738571
  H      9.51397684     10.20546048     -1.43249598
  H     12.07277868      7.17559613      2.32596561
  H     10.93450443      5.81180210      2.28395491
  H     10.31646339      7.47933860      2.44903321
 Cl     18.48665028     18.03192813     36.73805987
 Cl      8.53553347      8.99646726      2.43606139
 Cl      7.38255286      8.82627874      7.65978453
 Cl     -5.30572369      6.78610655    -27.60860324
 Cl    -35.08121478    -50.17017270     -5.47655248
