#B3LYP/6-31+G(d) OPT FREQ

62, Energy =    -96.25013645 au

0 1
  N      4.40022852      2.38101597     10.99443282
  C      3.58334104      1.42904480     10.54514391
  N      3.23968387      1.71085775      9.28941992
  C      3.78335441      2.91706084      8.95883470
  C      4.50617921      3.33774176     10.02435872
  C      4.95329194      2.43526984     12.32114922
  C      5.70834889      1.14911293     12.64809244
  C      2.37410345      0.90195961      8.48542524
  H      3.41424048      0.48621964     11.01986298
  H      3.62766487      3.36721875      8.00043452
  H      5.08237718      4.22788379     10.16822975
  H      5.62330284      3.29745002     12.36243521
  H      4.12646376      2.59039961     13.02337166
  H      6.41580950      1.31618931     13.45625365
  H      6.24067953      0.80639269     11.76293266
  H      5.01779750      0.36675223     12.94927734
  H      2.14662190      1.42390208      7.55882664
  H      1.45334586      0.71623915      9.04111559
  H      2.86234995     -0.04681209      8.25681484
  N      9.35426764      1.59684375      9.19560479
  C      9.13867122      0.28522744      9.24086827
  N     10.30773091     -0.34244358      9.22959945
  C     11.30254173      0.58399376      9.17684025
  C     10.70403940      1.80553554      9.15740280
  C      8.32172146      2.60395133      9.22638362
  C      8.36505552      3.38668991     10.53426577
  C     10.53095843     -1.76119063      9.25847960
  H      8.14100146     -0.13984175      9.26471775
  H     12.33596828      0.25989875      9.18886077
  H     11.13121496      2.78653237      9.11302215
  H      8.45959980      3.27781571      8.37618525
  H      7.36335269      2.08003288      9.12916632
  H      7.61068923      4.16658243     10.50995463
  H      9.33950509      3.85000866     10.68452751
  H      8.15841197      2.72360855     11.36981955
  H      9.98748930     -2.21104820     10.08827039
  H     11.61186634     -1.92250954      9.37553348
  H     10.19266430     -2.21533780      8.32614730
  N      4.74111184      9.59526337      0.76671272
  C      4.77221092     10.74201450      0.08989519
  N      3.81689258     10.71422751     -0.83119835
  C      3.15490849      9.52882961     -0.75063347
  C      3.73484431      8.82363654      0.25760781
  C      5.61483515      9.26567729      1.86776661
  C      5.38805909     10.20855558      3.04326884
  C      3.50323132     11.74615188     -1.77916519
  H      5.47605042     11.55118142      0.31752935
  H      2.34679126      9.31474022     -1.43807767
  H      3.51339247      7.84910733      0.64125346
  H      5.42442358      8.22552337      2.14653196
  H      6.64972886      9.36830464      1.53180535
  H      5.98499031      9.88706487      3.89202658
  H      4.33955100     10.22293331      3.33242103
  H      5.70269991     11.21109455      2.75557976
  H      3.16118881     12.64066836     -1.25970634
  H      2.70915621     11.36493285     -2.43289799
  H      4.38661546     11.99788236     -2.36382162
 Cl      1.15512785      9.89342586     -3.21709994
 Cl      6.85276269     12.75782448      1.24339171
 Cl      1.48444705      2.06189205     11.74707315
 Cl     13.78349130     -1.36989472      9.48603316
 Cl      5.98703175      0.20043020      9.20758491

