#B3LYP/6-31+G(d) OPT FREQ

62, Energy =    -96.19599211 au

0 1
  N     -0.57100710      9.73246762      4.48768870
  C     -1.35249250      8.62704802      4.55036463
  N     -2.60887753      9.00169600      4.87971124
  C     -2.62517064     10.36358692      4.97656983
  C     -1.37247727     10.81752662      4.73529621
  C      0.76078517      9.77159645      3.94289969
  C      0.71174157      9.88220839      2.42159128
  C     -3.74312565      8.13043739      4.80072505
  H     -1.03972970      7.62947939      4.34067918
  H     -3.51942735     10.90415000      5.21043216
  H     -0.98868496     11.81655441      4.72712202
  H      1.28912212     10.62208455      4.38334449
  H      1.27063544      8.84937501      4.23210746
  H      1.70194625      9.74811736      1.99562781
  H      0.32474221     10.85309305      2.12345225
  H      0.04448450      9.11374876      2.03658978
  H     -3.78968901      7.73902324      3.77845427
  H     -4.64859119      8.68520323      5.03127971
  H     -3.63406574      7.29499107      5.49498785
  N     -1.47921465      7.49309026     -1.18406071
  C     -2.79477251      7.29721507     -1.07057315
  N     -3.00638052      6.09326897     -0.53498503
  C     -1.79900564      5.46628611     -0.40815330
  C     -0.84679238      6.33947329     -0.81105106
  C     -0.86799747      8.65794808     -1.76522631
  C     -1.29523018      9.92597703     -1.03281529
  C     -4.30422690      5.52488841     -0.32679844
  H     -3.53646389      8.06372555     -1.14031188
  H     -1.71367980      4.46947008     -0.02874108
  H      0.21837685      6.24075475     -0.84634318
  H      0.21503908      8.52647126     -1.70356010
  H     -1.16577573      8.70247525     -2.81879544
  H     -0.62063790     10.74371007     -1.27168311
  H     -1.28079129      9.74959429      0.03969422
  H     -2.30356578     10.21172467     -1.31869083
  H     -4.85751888      6.11710083      0.40405303
  H     -4.20209227      4.50443413      0.03534542
  H     -4.84121377      5.53008861     -1.27845879
  N     10.68991219     -4.81765616     10.09470645
  C     11.97755251     -4.92829349      9.68800828
  N     12.25683560     -6.24918999      9.56256771
  C     11.22662843     -6.95302216     10.14894277
  C     10.25851729     -6.07174077     10.46923110
  C     10.04934216     -3.56181071     10.38846861
  C      9.71086846     -2.79730743      9.11333517
  C     13.57530286     -6.73998788      9.28239557
  H     12.44630950     -4.19270442      9.06200764
  H     11.26229536     -8.01623483     10.26347071
  H      9.30030446     -6.22656379     10.91863263
  H      9.14138015     -3.77049201     10.95650546
  H     10.73033372     -2.97378757     11.01295441
  H      9.15984104     -1.89390899      9.36005946
  H      9.10201829     -3.40940419      8.45200698
  H     10.61725718     -2.51196129      8.58674729
  H     13.58185499     -7.82577941      9.34020538
  H     14.27288845     -6.32604859     10.01525490
  H     13.88688678     -6.42741492      8.28440866
 Cl     -2.13306286      7.92208962      1.95653081
 Cl     -8.57509677    -26.28844365     13.25956471
 Cl     24.73665804     29.92602562      8.24188187
 Cl     -3.41338797      6.85760338     -3.41219367
 Cl     13.19637751     -4.23914469     11.43565961

