62
Energy =    -96.28073416 au
  N      6.41911189      2.85741327      2.33047435
  C      5.61153798      3.09055075      1.29764290
  N      6.30259915      3.68598167      0.33365156
  C      7.59018004      3.83289856      0.75608997
  C      7.66401643      3.31001369      2.00990450
  C      6.07157524      2.20833228      3.56907502
  C      5.95801610      0.69918243      3.37713989
  C      5.78122783      4.16257526     -0.91397601
  H      4.55895409      2.89595986      1.26907858
  H      8.30853838      4.34845014      0.14786212
  H      8.46889754      3.25081967      2.71914015
  H      6.87056253      2.43456868      4.28497120
  H      5.12775570      2.62316107      3.92892618
  H      5.72850210      0.23125285      4.32967248
  H      6.90175606      0.30166448      3.01447035
  H      5.17161245      0.45178514      2.66560800
  H      4.81380261      4.62826304     -0.72584274
  H      5.66313898      3.34238141     -1.62294937
  H      6.48445587      4.89868525     -1.31047279
  N      6.45294335      8.10416713      0.65550013
  C      7.18473402      7.19394783      1.28899215
  N      8.17349989      7.79176087      1.93957427
  C      8.09147112      9.12697765      1.69547800
  C      7.01776932      9.32374107      0.88497796
  C      5.36721240      7.76219128     -0.23448849
  C      4.56193594      8.96788831     -0.68628680
  C      9.15917717      7.17952201      2.78189363
  H      6.97798130      6.14521667      1.30128841
  H      8.76841080      9.82822695      2.13578591
  H      6.62760343     10.23270316      0.47834568
  H      5.82162921      7.26167352     -1.09629229
  H      4.72389570      7.04086472      0.28301724
  H      3.72246867      8.62114741     -1.28213232
  H      5.16236332      9.63757361     -1.29916787
  H      4.16878252      9.51897938      0.16611299
  H      9.15813720      7.71077820      3.73604732
  H     10.14450509      7.25894902      2.32155122
  H      8.91976699      6.13087245      2.93698972
  N      5.17858611      7.22377655      4.58454567
  C      6.03394966      7.45855914      5.57934843
  N      6.94827157      6.49700340      5.59379760
  C      6.69578031      5.64479390      4.56087483
  C      5.58587659      6.09869082      3.92455923
  C      4.05267583      8.04626689      4.21761464
  C      4.51270251      9.30223257      3.48556411
  C      8.08896237      6.41501511      6.45785060
  H      5.96090089      8.26095200      6.28270522
  H      7.32687991      4.78615805      4.41413955
  H      5.03808118      5.72153916      3.07829648
  H      3.40189738      7.44337696      3.57992116
  H      3.51294039      8.31935985      5.13015751
  H      3.70929723     10.03313463      3.44807948
  H      4.81239430      9.05304141      2.47390926
  H      5.37070373      9.73444311      3.99509595
  H      8.64968135      5.51795626      6.19529344
  H      7.77769081      6.36355993      7.50147100
  H      8.70236773      7.30617288      6.31249990
 Cl    -25.09491442     23.04075816     22.70084713
 Cl      7.74925501      9.44218203      4.82594375
 Cl      8.90651338      3.27324896      5.04686219
 Cl      3.58538825      5.28579083      1.42734496
 Cl      8.30063245      6.39642490     -1.14794143
