#B3LYP/6-31+G(d) OPT FREQ

62, Energy =    -96.25980389 au

0 1
  N      8.36449084      7.00942762      5.03540400
  C      8.54647587      6.28919484      3.93351198
  N      9.78420212      6.48525391      3.48875827
  C     10.41187030      7.35108180      4.33161928
  C      9.51673214      7.67893416      5.30591043
  C      7.17220170      7.03320847      5.84328744
  C      7.25976052      5.99009717      6.95769491
  C     10.38932724      5.92158793      2.31726391
  H      7.77433465      5.70041220      3.46843743
  H     11.44700312      7.59650573      4.18107741
  H      9.58102680      8.36283565      6.12812334
  H      7.08388856      8.04579230      6.25783529
  H      6.32324333      6.80886582      5.19256934
  H      6.32648604      5.97333795      7.51003252
  H      8.06947254      6.22652443      7.64638876
  H      7.43296360      4.99722729      6.54144100
  H     11.47778526      5.89104319      2.48382588
  H     10.19204077      6.55413742      1.44993554
  H      9.99352856      4.92571925      2.13172741
  N      5.44009029      8.97719983      1.46139106
  C      4.72702243      7.93155084      1.05378699
  N      3.93513080      8.30988812      0.05693058
  C      4.14604924      9.63174350     -0.18919008
  C      5.09357050     10.05188081      0.69262051
  C      6.45213362      8.93230749      2.49217555
  C      7.84664668      8.99603372      1.87825420
  C      2.98876903      7.50175552     -0.66107563
  H      4.80267106      6.95459135      1.51642674
  H      3.60863599     10.11901529     -0.99222225
  H      5.53675537     11.01590681      0.83424166
  H      6.30563942      9.76368867      3.18447975
  H      6.31503437      7.99125262      3.02981268
  H      8.58764473      9.04524473      2.67035076
  H      7.95568604      9.87993138      1.25299743
  H      8.03136517      8.11318725      1.27019833
  H      3.47498925      6.61021127     -1.05273871
  H      2.59590206      8.10976984     -1.48785728
  H      2.17244773      7.20148422     -0.00342964
  N      3.25817785      7.51293188      5.36362619
  C      3.54430794      7.49729952      6.66582782
  N      4.33310491      8.53222620      6.94844990
  C      4.49666729      9.27038403      5.81391009
  C      3.82648868      8.63249777      4.82129288
  C      2.40209220      6.58648585      4.66848863
  C      1.06074194      7.24037647      4.35638738
  C      4.85119395      8.89507639      8.23669966
  H      3.29349893      6.70355812      7.33709784
  H      5.13254274     10.13385754      5.80490210
  H      3.71072453      8.87549708      3.78538234
  H      2.91843221      6.26110463      3.76045006
  H      2.25295424      5.72370353      5.31987206
  H      0.38519922      6.52045991      3.90062739
  H      1.19170142      8.08146073      3.67724622
  H      0.62746182      7.60483098      5.28640702
  H      4.14806375      9.55564354      8.74189534
  H      5.80314332      9.40980709      8.08341813
  H      4.99334715      8.00243637      8.84256167
 Cl      2.31786396      9.89726505     -2.80711027
 Cl     13.42713567      6.44029188      3.27628780
 Cl      5.40487959      5.64118207      3.14516308
 Cl      7.54973490     10.21548600      6.66857177
 Cl      1.29177279      8.23956807      7.74348330

