#B3LYP/6-31+G(d) OPT FREQ

62, Energy =    -96.27391290 au

0 1
  N      2.29370068      4.20280854      4.29547173
  C      2.37614053      4.78161358      3.10066507
  N      3.51968701      4.42080635      2.53211098
  C      4.18398118      3.58578665      3.37884802
  C      3.40989366      3.44665577      4.48929837
  C      1.21077814      4.33239957      5.23552140
  C      0.07881079      3.37213762      4.88479719
  C      3.98129576      4.84923878      1.24377543
  H      1.70078336      5.51932187      2.67511001
  H      5.16445295      3.22336191      3.14026823
  H      3.56925233      2.94135923      5.42334463
  H      1.62020750      4.10387235      6.22770761
  H      0.85231191      5.36289209      5.20679453
  H     -0.72445858      3.47367013      5.60901775
  H      0.43715856      2.34544393      4.90809617
  H     -0.31214271      3.58968397      3.89200507
  H      3.76553970      4.08504051      0.49448537
  H      5.06465165      4.98872995      1.29317691
  H      3.46783660      5.77007775      0.97518353
  N      5.27698769      5.91427357      5.48647541
  C      5.57246163      6.48954909      4.32604675
  N      4.53312628      7.21238012      3.92775230
  C      3.56655198      7.13757554      4.88662273
  C      4.03368838      6.32144848      5.86693670
  C      6.13335037      5.06410120      6.27212505
  C      6.85293416      5.89241043      7.33341659
  C      4.45451719      8.00584069      2.73733537
  H      6.45862189      6.30653731      3.74839892
  H      2.63495374      7.65323780      4.77685217
  H      3.58343777      5.95191386      6.76693088
  H      5.50356856      4.30225847      6.74092889
  H      6.84780931      4.59369789      5.59494642
  H      7.67393306      5.32533459      7.76330192
  H      6.16141996      6.16769010      8.12590936
  H      7.24016647      6.80365561      6.88260359
  H      3.42911126      7.98617985      2.35803454
  H      5.14064651      7.59988898      1.99821148
  H      4.74867761      9.03142882      2.96742936
  N      9.29908566      7.87710124      2.83637292
  C      9.18462410      9.16882450      3.11294140
  N      8.23604635      9.69589314      2.35552313
  C      7.71984176      8.70790283      1.57482668
  C      8.38046558      7.56104765      1.87961989
  C     10.19028954      6.94726216      3.47936762
  C      9.41280256      6.05444843      4.43965488
  C      7.88840094     11.08360595      2.35539643
  H      9.75929106      9.70731206      3.83632196
  H      6.93828953      8.89364860      0.86666919
  H      8.23443259      6.55441589      1.53753289
  H     10.68117925      6.34756881      2.70672635
  H     10.94686279      7.53060254      4.00904486
  H     10.09327480      5.46386093      5.04775354
  H      8.76573189      5.38322326      3.88029916
  H      8.79772822      6.67740184      5.08351021
  H      7.47665414     11.35343415      3.32904046
  H      7.15503283     11.27832708      1.57561041
  H      8.80387419     11.65160819      2.16727369
 Cl      7.15554077      4.39955641      2.16042184
 Cl      7.04047784      8.72548041      5.11172150
 Cl      1.20712142      7.32837008      1.68153814
 Cl     11.13444443     10.69354131      1.75133415
 Cl      3.20560551      3.47990372      7.75703542

