#B3LYP/6-31+G(d) OPT FREQ

62, Energy =    -96.26111167 au

0 1
  N      3.23552721      6.15487545      4.45195595
  C      4.26086175      6.92822708      4.79809567
  N      5.03387297      7.13231300      3.73928864
  C      4.50945786      6.44995501      2.68940609
  C      3.36873027      5.84849573      3.12981325
  C      2.20900982      5.70740198      5.36381657
  C      0.82459613      5.72273909      4.73225137
  C      6.31094337      7.77869694      3.69761679
  H      4.37243594      7.35575551      5.77845573
  H      4.99190604      6.43880068      1.73393329
  H      2.69402699      5.19868782      2.61461341
  H      2.45647169      4.69698956      5.70417005
  H      2.23463265      6.39138820      6.21938904
  H      0.09220377      5.43738488      5.48218546
  H      0.75220488      5.02454955      3.90120888
  H      0.58377788      6.72320594      4.38241167
  H      7.05520987      6.99738558      3.51752754
  H      6.50828392      8.27015147      4.64661012
  H      6.34530597      8.49684829      2.87305622
  N      7.86069563      6.40941848      0.45737859
  C      7.93761419      5.08311125      0.43936532
  N      6.82788413      4.59036704     -0.09414884
  C      6.03364844      5.63326711     -0.46280338
  C      6.68212234      6.77764249     -0.12111820
  C      8.89229345      7.31542925      0.89101423
  C      9.87285459      7.57489241     -0.24962713
  C      6.58518857      3.19291249     -0.27595408
  H      8.72150414      4.49889389      0.87163738
  H      5.08399019      5.48412157     -0.93607056
  H      6.40012245      7.80894444     -0.20288458
  H      8.41192939      8.24331882      1.21033184
  H      9.40549227      6.86127650      1.74171371
  H     10.76380603      8.07353856      0.12240968
  H      9.40900189      8.20066915     -1.00817964
  H     10.15044210      6.62871844     -0.71049190
  H      7.42411184      2.77791059     -0.83943305
  H      5.65609376      3.04744590     -0.82317695
  H      6.52139339      2.71321485      0.70232313
  N      2.94407082      9.49746592      2.08464211
  C      3.84091848     10.12784071      2.84869228
  N      3.46335902     10.03630946      4.12357489
  C      2.29135097      9.34713885      4.17923794
  C      1.96442428      9.00874828      2.90228219
  C      3.05965768      9.39613258      0.64806751
  C      2.52750273      8.07800011      0.10764599
  C      4.15673853     10.57300739      5.25834372
  H      4.77326479     10.51314056      2.45867935
  H      1.84881502      9.10857286      5.12981941
  H      1.12030028      8.46969748      2.52737494
  H      2.52249659     10.23349510      0.18850068
  H      4.12850161      9.50597635      0.42503379
  H      2.77221138      8.00709262     -0.94811925
  H      1.44622786      8.00862208      0.21153664
  H      2.99014344      7.24291975      0.62602979
  H      3.89040793      9.96770158      6.13199898
  H      3.85113070     11.60515516      5.43852094
  H      5.22921908     10.54689669      5.08030034
 Cl    -29.62909530     -2.99788361     -0.74982197
 Cl      2.71046936      8.40849073      7.25472884
 Cl      6.54198170      4.56266577      3.00152318
 Cl      9.40718884      4.38595151     -1.68520249
 Cl      6.33025764     10.03521196      1.04485111

