62
Energy =    -96.27029180 au
  N      5.58248775      0.70345395      2.20145632
  C      5.42530063      2.01534977      2.33790586
  N      4.90323169      2.50662600      1.21848677
  C      4.71633395      1.48366265      0.34213948
  C      5.14167321      0.34963867      0.96196222
  C      6.07674762     -0.23518664      3.18021455
  C      6.66933109      0.44628095      4.39977452
  C      4.58404656      3.88271391      0.96510827
  H      5.58490596      2.58470433      3.23704550
  H      4.23589387      1.65172494     -0.60389782
  H      5.12751988     -0.67074779      0.64215879
  H      5.23243899     -0.88202132      3.44890460
  H      6.82794091     -0.86321496      2.68956483
  H      6.96726264     -0.30820968      5.12190798
  H      5.94579166      1.10528027      4.87000506
  H      7.54569444      1.03201577      4.12788327
  H      3.80447118      3.91637840      0.19824980
  H      5.46381618      4.41626859      0.60087092
  H      4.23689911      4.35066514      1.88371678
  N      4.02511030      2.23251410      8.63303579
  C      3.54506399      1.86892964      9.82172908
  N      2.22847656      2.06088219      9.82805561
  C      1.86097187      2.56465866      8.61233932
  C      2.99085149      2.67088193      7.86385875
  C      5.40314447      2.15843152      8.21019522
  C      5.91595598      0.72483181      8.27043315
  C      1.37997394      1.77302962     10.94925254
  H      4.06274953      1.45433773     10.68751650
  H      0.84524170      2.80803336      8.37695865
  H      3.16012945      3.02179691      6.86138909
  H      5.44780201      2.54675739      7.18873154
  H      6.00575791      2.79553934      8.86361042
  H      6.95493323      0.69890823      7.95493143
  H      5.33774145      0.08678946      7.60724825
  H      5.84678137      0.33712896      9.28387430
  H      0.58574660      1.08679671     10.65616582
  H      0.93599445      2.69057264     11.33650065
  H      2.00777413      1.31188859     11.72208427
  N      1.62296623      0.78542058      3.70485474
  C      1.26394783     -0.02198359      2.70813812
  N      1.42417327      0.61792071      1.55503083
  C      1.93932685      1.85269313      1.81577955
  C      2.07462251      1.95824706      3.16209260
  C      1.63966001      0.45500178      5.10752985
  C      3.05121332      0.08836932      5.54637212
  C      1.25154203      0.06962373      0.24143348
  H      0.84011885     -0.99719270      2.82625302
  H      2.12980269      2.53086481      1.00331796
  H      2.49402212      2.73384921      3.77192982
  H      1.27890424      1.32163588      5.66979210
  H      0.96102992     -0.38694662      5.26479018
  H      3.04700822     -0.23590786      6.58338770
  H      3.70111872      0.95220342      5.43613846
  H      3.41558733     -0.71923627      4.91718213
  H      1.51938078      0.83976401     -0.48475343
  H      0.22035445     -0.24931175      0.08756271
  H      1.91435531     -0.79018307      0.13341462
 Cl      2.32024924      2.95020481     -1.30308298
 Cl      3.98198533      0.57358764     12.58427398
 Cl      4.56936481      3.42402617      5.08660633
 Cl     15.08700567     37.43175968      6.69628109
 Cl      3.26920155     -1.78024278      2.48258349
