#B3LYP/6-31+G(d) OPT FREQ

62, Energy =    -96.25876268 au

0 1
  N      2.16880889      0.53266583      0.33319943
  C      1.87481200      0.83113714      1.59603365
  N      1.47103758     -0.27756476      2.21717511
  C      1.51360144     -1.30834840      1.32108850
  C      1.94775096     -0.79678086      0.13937058
  C      2.63844105      1.42409435     -0.70127429
  C      3.50157002      2.54424783     -0.14406787
  C      1.07239043     -0.34036435      3.59455968
  H      1.91348143      1.78786601      2.09843790
  H      1.23712066     -2.30775389      1.58551511
  H      2.18504656     -1.25288560     -0.80943125
  H      3.18923947      0.79996531     -1.41876433
  H      1.76953331      1.84546203     -1.21846705
  H      3.89035903      3.13788147     -0.96646419
  H      4.33912585      2.13810712      0.41496927
  H      2.93020261      3.19684742      0.51168292
  H      1.74574952     -0.98953498      4.15633351
  H      0.05646443     -0.72776279      3.67712434
  H      1.11289225      0.67585931      3.99891688
  N      3.03652382      2.83209213      6.67603411
  C      3.36176376      3.90370929      5.95618556
  N      2.80161507      4.98086957      6.50563941
  C      2.18381933      4.59602082      7.66174062
  C      2.32716397      3.25217811      7.76599598
  C      3.43927473      1.48290583      6.38213423
  C      4.76248456      1.15299030      7.06486345
  C      3.03042330      6.31641586      6.04110363
  H      3.81808918      3.87655473      4.99053483
  H      1.68984539      5.29613779      8.30373232
  H      1.97384198      2.57087490      8.51231678
  H      2.64219940      0.80969818      6.71287567
  H      3.53134809      1.41094746      5.29691182
  H      5.16116831      0.21364280      6.69167676
  H      4.63075014      1.07617000      8.14206990
  H      5.47305402      1.95233191      6.86485727
  H      4.10691686      6.50588604      6.07783294
  H      2.50310649      7.02460973      6.67624342
  H      2.68662301      6.41454191      5.01085069
  N      6.08202826      0.62426463      2.07692969
  C      6.76775912      0.79117628      0.93420329
  N      6.18670666      0.05200809     -0.02022438
  C      5.21829983     -0.71986431      0.56274496
  C      5.14495384     -0.35801378      1.86522898
  C      6.37704785      1.28780165      3.32195922
  C      5.72893816      2.66640374      3.38205537
  C      6.62965160     -0.08111051     -1.37648998
  H      7.42940591      1.61125409      0.74525463
  H      4.65350313     -1.41576178     -0.02363043
  H      4.52025979     -0.71191792      2.65881395
  H      6.01006585      0.66251556      4.13796397
  H      7.46384673      1.36484343      3.40505900
  H      5.95283944      3.13847609      4.33639030
  H      4.64866949      2.58380634      3.27048959
  H      6.10985856      3.30335734      2.58707822
  H      5.81447996     -0.51119751     -1.96141766
  H      7.50575171     -0.73124459     -1.41542969
  H      6.89850110      0.89609753     -1.77585494
 Cl      1.53028975      2.94233252      3.92118094
 Cl    -19.71742289     30.13755940     17.06291284
 Cl      8.80535620     -0.40404709      1.40411108
 Cl      5.74899660      4.44191622      6.63404445
 Cl      3.60597542     -1.19097865     -2.53260861

