#B3LYP/6-31+G(d) OPT FREQ

62, Energy =    -96.26159159 au

0 1
  N      8.16595936      4.65673326      3.10108519
  C      8.53068114      3.85458376      4.09453709
  N      9.26917392      4.53399619      4.95874178
  C      9.35200268      5.82074629      4.52950522
  C      8.65918717      5.89971654      3.36144566
  C      7.24716681      4.30607166      2.04291668
  C      5.87586492      4.90865164      2.33557895
  C      9.76283326      3.98698561      6.18817674
  H      8.36823736      2.78879237      4.17921905
  H      9.86619938      6.58044929      5.08125794
  H      8.47319937      6.73588612      2.71994333
  H      7.64538598      4.66519311      1.08998991
  H      7.18986581      3.21698890      2.01588150
  H      5.08527874      4.30805863      1.89424479
  H      5.80145885      5.92480460      1.95849155
  H      5.73381177      4.92788316      3.41331275
  H      9.05986987      4.22245665      6.98954736
  H     10.74008450      4.40443684      6.42410293
  H      9.82522400      2.90254487      6.06920675
  N      6.14176560      1.13826377      5.04816474
  C      5.70228930      1.41220879      3.82217932
  N      5.93113586      0.36280857      3.03671777
  C      6.53386574     -0.60549472      3.78161728
  C      6.66852514     -0.11408078      5.04268123
  C      6.05641140      2.00467524      6.19510832
  C      4.72249516      1.81686504      6.91085104
  C      5.60936795      0.29723021      1.64012859
  H      5.15739782      2.28617682      3.50384812
  H      6.84814563     -1.54003432      3.36589186
  H      7.12199613     -0.54935326      5.90775308
  H      6.89181572      1.76504784      6.85500207
  H      6.15807266      3.04522155      5.87140267
  H      4.64415963      2.54051664      7.71643887
  H      4.63561335      0.81395701      7.32605299
  H      3.90260703      1.98254416      6.21556900
  H      5.26954283     -0.70470121      1.38360153
  H      6.48318485      0.54348901      1.03435985
  H      4.81196595      1.02288883      1.44723701
  N      4.03404166      8.07157346      3.63479702
  C      4.15452165      6.99153194      4.40078837
  N      3.25432337      6.09140979      4.02645580
  C      2.53364404      6.61666798      2.99500953
  C      3.02547416      7.86228006      2.74754030
  C      4.86030220      9.25368636      3.68759798
  C      6.29692521      8.91423764      3.30822807
  C      3.10277874      4.78750088      4.60557290
  H      4.89894534      6.81783506      5.15942371
  H      1.75588840      6.06339481      2.51182007
  H      2.76147778      8.64125442      2.04554412
  H      4.42485955      9.97406772      2.97880724
  H      4.82656782      9.66376955      4.70036046
  H      6.91422523      9.80439898      3.38874262
  H      6.33157025      8.56467570      2.27899614
  H      6.69836902      8.14358625      3.96478012
  H      3.10346906      4.02981219      3.81445199
  H      2.16406573      4.72303942      5.15730287
  H      3.93890894      4.61260579      5.28028064
 Cl      3.07587448     10.76662240      1.39292360
 Cl     17.97953841     20.94922711     29.93281833
 Cl      6.47030480      5.33487509      5.87658285
 Cl      9.34809775      0.91764666      4.75767162
 Cl      3.30236735      2.57281670      2.08243894

