62
Energy =    -96.25505567 au
  N      6.29232126      5.17936052      9.54212442
  C      5.71258548      4.73321601     10.65674031
  N      5.63196141      5.73847508     11.53141863
  C      6.18668647      6.84857516     10.95432779
  C      6.59530787      6.49626436      9.70615547
  C      6.52303951      4.43007164      8.33003429
  C      5.20428288      4.08873681      7.64598345
  C      5.04642002      5.64223090     12.83893743
  H      5.31631628      3.74877189     10.85140568
  H      6.24288943      7.78866414     11.46297472
  H      7.07662171      7.03794193      8.90039286
  H      7.13207579      5.07241010      7.67646687
  H      7.06792637      3.51486127      8.57869982
  H      5.40508506      3.48373883      6.76666157
  H      4.70279532      4.99943128      7.32596376
  H      4.55142016      3.52966166      8.31579657
  H      4.36981334      6.47971744     13.00884282
  H      5.81865956      5.65062697     13.60965209
  H      4.49232750      4.70119144     12.89429540
  N      4.33234488      8.63578825      5.51288924
  C      5.44353827      8.18827972      4.92827784
  N      5.31469240      6.88538300      4.70037599
  C      4.05734509      6.50998842      5.07808505
  C      3.43851938      7.60658514      5.58460159
  C      4.02299929      9.99969843      5.85832023
  C      3.36910707     10.70519862      4.67320679
  C      6.30668054      6.09134295      4.04073270
  H      6.35348005      8.73750743      4.80938522
  H      3.70055979      5.50894732      4.94452742
  H      2.46516842      7.75581266      6.01423669
  H      3.34247513      9.97818809      6.71389209
  H      4.95296389     10.50029534      6.13784842
  H      3.31672031     11.77615797      4.85012864
  H      2.36334354     10.32170953      4.52301978
  H      3.95107638     10.51228746      3.77431771
  H      6.52484582      6.55640594      3.07642972
  H      5.93415473      5.07972089      3.89588779
  H      7.21075287      6.07592639      4.65244073
  N      1.50380983      3.58021406      9.13358697
  C      2.29490742      4.46996458      9.73441136
  N      2.23701770      5.61834475      9.06528022
  C      1.38453591      5.46699196      8.01580453
  C      0.91989502      4.18961769      8.05950050
  C      1.27070840      2.23638109      9.60206063
  C     -0.09912178      2.12132161     10.26235259
  C      2.93638845      6.83615612      9.35407213
  H      2.87180526      4.23039784     10.61650297
  H      1.13321473      6.31631248      7.40083389
  H      0.23568515      3.67925668      7.41463137
  H      1.34479161      1.54964587      8.75443737
  H      2.05501477      2.00785616     10.32935199
  H     -0.26412857      1.09721603     10.58458095
  H     -0.89089102      2.40518037      9.57208010
  H     -0.14472309      2.76837681     11.13441496
  H      3.05393065      6.95317451     10.42888753
  H      2.34052784      7.66033162      8.93131557
  H      3.91648736      6.84235352      8.87487205
 Cl      0.86360284      8.56994843      7.60694398
 Cl      7.88674930      7.04712980      6.88113773
 Cl     -0.92542402    -26.22340412    -19.99435391
 Cl      3.68973501      2.67319473     11.99171982
 Cl      5.29051764      8.86652262      2.41441708
