#B3LYP/6-31+G(d) OPT FREQ

62, Energy =    -96.26965029 au

0 1
  N      4.38587294      6.12024033      5.13325960
  C      4.89950780      5.17403956      5.92101499
  N      5.66667271      4.37416845      5.19239136
  C      5.71697040      4.85828981      3.92288107
  C      4.91637055      5.95277515      3.88190646
  C      3.52811176      7.20509370      5.54238782
  C      4.34949461      8.40453542      6.00175728
  C      6.38988048      3.23582058      5.67455324
  H      4.61791391      4.97484627      6.93662846
  H      6.25781066      4.34867166      3.15248051
  H      4.68568240      6.61719154      3.07507987
  H      2.89724592      7.47685041      4.69152365
  H      2.87779813      6.85003086      6.34363918
  H      3.72195497      9.10766784      6.54209920
  H      4.80025980      8.91166114      5.15240455
  H      5.15418898      8.05453045      6.64728581
  H      7.39897486      3.53747855      5.95913686
  H      6.42926530      2.48964633      4.88090562
  H      5.88176511      2.84030951      6.55129802
  N      1.79124161      4.37879039     10.08789491
  C      2.59967044      5.07942670      9.29411535
  N      3.61226211      5.55972624     10.01156930
  C      3.50452096      5.05564343     11.27504004
  C      2.36618534      4.31668060     11.32440723
  C      0.57435271      3.72984772      9.66758456
  C      0.79466676      2.23819906      9.44701690
  C      4.66386112      6.39903128      9.51870137
  H      2.34119148      5.35561375      8.28826030
  H      4.23354260      5.25949668     12.03267628
  H      1.92799075      3.76603855     12.13147396
  H     -0.18999516      3.90529680     10.43135601
  H      0.26604647      4.21214234      8.73659134
  H     -0.07827719      1.79758336      8.97371747
  H      0.98103883      1.72781287     10.38982939
  H      1.65983236      2.10182515      8.80306060
  H      5.40365744      5.83689245      8.93876553
  H      5.17140297      6.87890175     10.35178953
  H      4.25080517      7.15940179      8.85939725
  N      2.56723027      3.23934308      4.38072542
  C      1.69784009      4.14420037      4.81644497
  N      1.35763049      4.93883219      3.80095089
  C      2.03603576      4.52183918      2.69137696
  C      2.79259803      3.45270606      3.05713551
  C      3.12397635      2.13277690      5.11824928
  C      2.12309015      0.98359044      5.17790480
  C      0.41547371      6.01964503      3.86855943
  H      1.35134910      4.28842798      5.82653248
  H      1.93108722      5.00545770      1.74238571
  H      3.53647492      2.86816351      2.53245808
  H      4.02342870      1.81753076      4.58285629
  H      3.37341706      2.46142088      6.13136315
  H      2.55780285      0.16697438      5.74561318
  H      1.89058288      0.62613642      4.17644066
  H      1.20393289      1.29773060      5.66886830
  H     -0.55083958      5.70824094      3.46765648
  H      0.77701266      6.87070392      3.29339223
  H      0.29351380      6.29941164      4.91868779
 Cl      5.46803003      1.84221006      2.56256952
 Cl      6.88570636      6.48987461      7.12571203
 Cl    -28.71680418     17.53391336     30.42325349
 Cl      3.88687935      3.07698004      8.27465589
 Cl      0.47315775      6.12384673      7.13705785

