62
Energy =    -96.25861331 au
  N      3.55519186      6.69803058      6.96500858
  C      2.28775354      6.81729236      6.57333791
  N      1.51081754      6.93467494      7.64832086
  C      2.31419297      6.96682813      8.75393721
  C      3.59145569      6.81738995      8.32489414
  C      4.70455565      6.57221258      6.11016141
  C      5.39859147      7.92007948      5.95084587
  C      0.09291109      7.14300749      7.66546352
  H      1.93949388      6.69176448      5.57004913
  H      1.89459060      7.03713031      9.73721583
  H      4.50862165      6.75511075      8.87160756
  H      5.36626404      5.82016316      6.54888731
  H      4.35710057      6.21651829      5.13816683
  H      6.18528842      7.85420765      5.20387700
  H      5.83145555      8.24460208      6.89396143
  H      4.65894472      8.65401741      5.63618139
  H     -0.11823279      8.20725224      7.54463306
  H     -0.29292675      6.78541653      8.62245029
  H     -0.37141551      6.60024939      6.84401962
  N      3.07932634      1.29557743      5.55461484
  C      2.45013959      0.33039957      4.86929746
  N      1.63186396     -0.32471639      5.69837085
  C      1.74661826      0.23034344      6.93685053
  C      2.64707003      1.24636656      6.84494112
  C      3.99641947      2.27553950      5.02619255
  C      3.29311306      3.22625721      4.06360057
  C      0.74502240     -1.40388902      5.38039743
  H      2.57922135      0.11897392      3.82771092
  H      1.10988189     -0.09540190      7.73645971
  H      3.02787673      1.94771641      7.56672041
  H      4.38308090      2.83704219      5.88498703
  H      4.81913371      1.76154434      4.52020973
  H      4.00665604      3.95475874      3.69017557
  H      2.49799493      3.75576786      4.58105983
  H      2.86615230      2.69163046      3.21661750
  H     -0.15518219     -1.27263338      6.00252432
  H      1.20356175     -2.36301145      5.62598831
  H      0.48681070     -1.38305442      4.32401088
  N      0.35469296      2.87903982      8.85416300
  C      1.33064115      3.65771631      9.31966641
  N      1.93417838      3.03919392     10.32832226
  C      1.28700949      1.85643700     10.55068935
  C      0.29496927      1.75852541      9.62991841
  C     -0.59856870      3.24963575      7.84068927
  C      0.06973981      3.49394857      6.49221823
  C      3.00861380      3.60881335     11.08592620
  H      1.68584212      4.56710342      8.88429894
  H      1.57401733      1.19013611     11.33771651
  H     -0.41995810      0.98268922      9.43293347
  H     -1.31725499      2.43235830      7.75609205
  H     -1.10610138      4.15524460      8.18863697
  H     -0.62392214      3.99724169      5.82368244
  H      0.35328327      2.54560400      6.04424072
  H      0.95818018      4.10943601      6.61142330
  H      3.82981233      3.84578330     10.40699165
  H      3.34236784      2.90201079     11.84208985
  H      2.65922311      4.52833869     11.55880711
 Cl     -0.06396926      5.42454784     10.62711359
 Cl      2.19544134      9.22980565      5.63996375
 Cl     -1.32650649     -0.41213784      7.62150199
 Cl     23.92534937     -6.88319669    -15.16532445
 Cl      4.33984635      3.76369335      7.97727325
