62
Energy =    -96.25736427 au
  N      1.17420668      2.95110366      9.12248681
  C      1.11607522      2.92672904      7.79246360
  N      0.84771091      1.68973551      7.39645551
  C      0.72455987      0.89471245      8.49174228
  C      0.92826170      1.68861593      9.57800375
  C      1.38668549      4.12699364      9.93517629
  C      0.10878690      4.94292321     10.06860489
  C      0.71528787      1.23744804      6.04258364
  H      1.30136686      3.76139096      7.12382381
  H      0.59565481     -0.16832832      8.38070468
  H      0.91989518      1.45285174     10.62187794
  H      1.72870820      3.80840771     10.92093816
  H      2.16290181      4.73709129      9.47099010
  H      0.30211247      5.78653039     10.72994563
  H     -0.69042774      4.33961541     10.49343225
  H     -0.20342984      5.31815842      9.09767472
  H     -0.32993140      1.28390659      5.73227019
  H      1.04806174      0.19376643      6.00641007
  H      1.30774394      1.87163753      5.38729837
  N      4.09555956      0.75246708      6.10095056
  C      4.45530018      2.00907235      5.83661125
  N      4.42669112      2.71346568      6.96763047
  C      4.13109191      1.85783887      7.99115472
  C      3.92414811      0.63061359      7.44959217
  C      4.03502048     -0.34189480      5.16497681
  C      5.39685716     -1.02110156      5.06126272
  C      4.82027516      4.08781638      7.05287761
  H      4.56736023      2.43194146      4.86066415
  H      4.10421110      2.18336322      9.01090015
  H      3.61177258     -0.29774998      7.88340048
  H      3.27187048     -1.03884835      5.52535374
  H      3.73794344      0.05815789      4.19270295
  H      5.40210848     -1.72954951      4.23765552
  H      5.62388021     -1.55012573      5.98317501
  H      6.16471682     -0.26786633      4.89775347
  H      5.83320576      4.16979586      6.65149322
  H      4.79803941      4.41708457      8.08929396
  H      4.13805395      4.68905682      6.44854229
  N      2.36652728      8.25609912      6.85877562
  C      2.16713204      9.36530082      7.58287246
  N      2.06361523      9.02330727      8.87284872
  C      2.20889520      7.67312785      8.97038150
  C      2.39964078      7.19368430      7.71225823
  C      2.58218853      8.17287281      5.43697088
  C      4.03911967      8.46677991      5.08814657
  C      1.82598119      9.89168057      9.98966712
  H      2.07884380     10.35721437      7.19074408
  H      2.12631327      7.20657839      9.94070629
  H      2.49410623      6.19878946      7.31908678
  H      2.32534674      7.15089827      5.13662959
  H      1.91740770      8.88063264      4.93453966
  H      4.18160823      8.37756577      4.01491194
  H      4.69312114      7.74996960      5.58064578
  H      4.32066208      9.47265198      5.39715329
  H      2.69745953     10.51937189     10.18196929
  H      1.63675726      9.25249126     10.86298980
  H      0.96110912     10.52755510      9.80176267
 Cl      1.45083899      7.38411065     12.07133170
 Cl      7.01004830      2.05686649      5.57816635
 Cl      1.52207432     -1.79924829      7.02684511
 Cl     21.81663558     30.83193209    -21.67225229
 Cl      1.90716359      4.89474673      5.41909270
