62
Energy =    -96.27596456 au
  N      5.02057452      1.58522030      6.98101926
  C      4.23667670      0.51474301      7.04216442
  N      3.98456679      0.09419997      5.80717496
  C      4.63696527      0.90933168      4.93347086
  C      5.29160351      1.84575109      5.67351185
  C      5.48323909      2.33298244      8.12198208
  C      6.84131438      1.82453895      8.59267375
  C      3.12984369     -0.99269772      5.42694057
  H      3.78481398      0.16404188      7.95688608
  H      4.51120234      0.78459438      3.87516060
  H      5.87513220      2.69305694      5.37731107
  H      5.55213404      3.38162932      7.82352313
  H      4.73390967      2.21344495      8.90905680
  H      7.16947479      2.40863284      9.44747842
  H      7.58266659      1.92113545      7.80148672
  H      6.77553591      0.77976681      8.89043535
  H      3.69852882     -1.92108854      5.35035513
  H      2.70362064     -0.75266671      4.44472923
  H      2.34007913     -1.11181251      6.16479561
  N      3.32958635      8.14546149      5.40974170
  C      2.21183859      8.87002052      5.31168116
  N      1.73129768      9.09045986      6.54473535
  C      2.49568769      8.36164329      7.42639056
  C      3.49716540      7.78763515      6.72044944
  C      4.13751028      7.68470561      4.30873020
  C      5.13349527      8.75117409      3.86833920
  C      0.44647635      9.67116370      6.80497455
  H      1.89997365      9.40117316      4.43688468
  H      2.26752402      8.32086258      8.47088253
  H      4.28394746      7.11404002      7.00601334
  H      4.66761921      6.79015963      4.65028549
  H      3.46650156      7.41823259      3.48903336
  H      5.73279148      8.36873550      3.04732271
  H      5.79865009      9.00513669      4.69043922
  H      4.62171023      9.65370193      3.53710668
  H      0.24792537      9.65593271      7.87423177
  H     -0.30923393      9.07998593      6.27901072
  H      0.41075207     10.69917196      6.43982096
  N      2.09741789      3.76496862      4.68333862
  C      2.28200523      4.54748677      5.73769564
  N      2.19048562      3.81676026      6.84093636
  C      1.94617286      2.52620139      6.47936169
  C      1.89359899      2.49086301      5.11940059
  C      2.19149168      4.17950248      3.30719670
  C      3.61783661      3.98391828      2.80404028
  C      2.39672437      4.27713245      8.18370818
  H      2.43538789      5.60604596      5.69979745
  H      1.84285195      1.76518259      7.22915162
  H      1.77647295      1.68152177      4.41844265
  H      1.50843849      3.56376456      2.71933408
  H      1.88339557      5.22614575      3.25358366
  H      3.74886427      4.47962412      1.84627608
  H      3.80817561      2.92136205      2.67944823
  H      4.32768718      4.39224225      3.51903325
  H      2.40816074      3.40875837      8.84567106
  H      1.60220019      4.96275385      8.47947910
  H      3.35504286      4.79396442      8.23328789
 Cl      2.45947168      0.42989039      2.55020605
 Cl      5.24804171      5.12401543      6.19612091
 Cl     37.70821529     21.10210324     -0.46997098
 Cl      0.56522502      7.22004589      4.52361354
 Cl      2.54848729      1.13453284      9.57581676
