62
Energy =    -96.25484647 au
  N      2.16344232      5.07926079      1.87031958
  C      2.74759898      6.14506112      1.32854439
  N      3.12410762      6.97509193      2.30675942
  C      2.69545457      6.45026167      3.49562721
  C      2.09943011      5.26394345      3.22346688
  C      1.57721735      3.94557674      1.19616045
  C      2.23727084      3.66255137     -0.14312781
  C      3.64966324      8.28729059      2.07393769
  H      3.02448680      6.25953980      0.30341718
  H      2.84756986      6.95380849      4.42772932
  H      1.68886989      4.50431698      3.86154600
  H      1.66635484      3.09322346      1.87911485
  H      0.51280022      4.15315252      1.04218807
  H      1.84116889      2.73508259     -0.54887299
  H      3.31457973      3.55772533     -0.03189743
  H      2.02926496      4.46371062     -0.84818963
  H      3.69454737      8.83581651      3.01204307
  H      2.97011421      8.78985774      1.37797062
  H      4.64678834      8.23177993      1.63340386
  N      2.88783177      2.40116111      8.29878034
  C      3.19575129      1.73427045      9.40440537
  N      2.61131197      0.54640133      9.37323570
  C      1.90554387      0.44976857      8.21238810
  C      2.08160446      1.61086345      7.53123235
  C      3.39810639      3.69138903      7.91660215
  C      4.45633834      3.52774733      6.82992890
  C      2.68200886     -0.40536302     10.43918866
  H      3.81732117      2.08940837     10.19843223
  H      1.34024275     -0.42409376      7.96099946
  H      1.72322222      1.92102562      6.56892430
  H      2.56585122      4.30489723      7.55712180
  H      3.82368251      4.15458730      8.80905327
  H      4.95351248      4.47472224      6.63637361
  H      3.99236739      3.17676203      5.91187743
  H      5.19158347      2.79640080      7.15906316
  H      3.72243389     -0.69843433     10.58827229
  H      2.07894613     -1.27749729     10.19440481
  H      2.30109957      0.08314034     11.34102565
  N      5.91290307      2.05682407      3.13369546
  C      4.88785633      1.55307462      3.81835185
  N      5.34823606      0.66910308      4.69334713
  C      6.70456841      0.61141723      4.56890315
  C      7.05986328      1.48597744      3.58693761
  C      5.84498547      3.07522527      2.11760081
  C      5.72358328      4.45334529      2.75804407
  C      4.54970601     -0.08266479      5.61494835
  H      3.84126558      1.81159520      3.70646322
  H      7.30173390     -0.01932278      5.19298966
  H      8.00275475      1.72374531      3.12319550
  H      6.77324088      3.00410929      1.53163827
  H      4.97750621      2.87308208      1.48500440
  H      5.65950571      5.21217081      1.98322889
  H      6.60176498      4.65383076      3.36543875
  H      4.83662714      4.50713799      3.38676421
  H      4.87948437      0.11869456      6.64563209
  H      4.65713294     -1.14963125      5.41892186
  H      3.50943575      0.21107183      5.49918956
 Cl      8.90587558      2.46563378      1.06085094
 Cl      1.72208276      2.08537602      4.05426467
 Cl      5.70789485      0.57923739      8.59791581
 Cl      0.94647320      7.69029931      0.32085075
 Cl      1.48118755      2.49083953     11.48186675
