#B3LYP/6-31+G(d) OPT FREQ

62, Energy =    -96.25940333 au

0 1
  N      2.68120169      7.89029424      5.26975080
  C      2.78100647      7.76332910      3.94849369
  N      3.45951101      8.80417535      3.46131887
  C      3.81174286      9.60145483      4.51450538
  C      3.32303435      9.02949239      5.64489031
  C      2.07423157      6.95123143      6.17926468
  C      2.95701199      5.71595732      6.34308563
  C      3.87873265      8.92167456      2.09535128
  H      2.37596195      6.96727124      3.36086876
  H      4.37313728     10.50257126      4.37850735
  H      3.33602622      9.31013158      6.68901986
  H      1.96671609      7.46610232      7.14001362
  H      1.09240029      6.66983760      5.78676005
  H      2.38636302      4.91057096      6.79745559
  H      3.79873924      5.94862323      6.98812520
  H      3.33857007      5.39125990      5.37691304
  H      4.39346634      7.99273721      1.82890083
  H      4.55369315      9.76645887      1.98876426
  H      3.01926431      9.05565828      1.43586348
  N      6.41655946      9.35400330      7.29106079
  C      6.94209712      9.54847588      6.07707215
  N      6.68407768      8.47380579      5.32329998
  C      6.07509160      7.53479665      6.11414727
  C      5.89967963      8.08734324      7.33760194
  C      6.50541065     10.28016258      8.38884627
  C      5.35039633     11.27439754      8.37220306
  C      7.17422878      8.24593431      3.99579356
  H      7.27782982     10.49130536      5.70104640
  H      5.81092755      6.57629613      5.71893541
  H      5.41487582      7.72194827      8.21924962
  H      6.47605682      9.70454149      9.31598189
  H      7.47505361     10.78210612      8.31478020
  H      5.45277238     11.97130597      9.20015982
  H      4.40807984     10.73937511      8.48233563
  H      5.33439480     11.83577907      7.43993646
  H      7.07340887      9.15490560      3.40303402
  H      6.60114002      7.43705364      3.54166247
  H      8.23263433      7.97905260      4.04116079
  N      2.88128890      3.16537363      3.21498613
  C      3.35677969      3.42199524      1.99580376
  N      4.63232300      3.04931405      1.94058138
  C      4.96068161      2.47254595      3.12996718
  C      3.86797514      2.54022650      3.92822988
  C      1.51827138      3.33684203      3.64232119
  C      0.75002151      2.02595689      3.50357221
  C      5.44978734      3.16132763      0.77126860
  H      2.86093545      4.00847887      1.25227190
  H      5.93798092      2.08043880      3.32272757
  H      3.72163742      2.21838052      4.93889807
  H      1.51825095      3.68691325      4.67892100
  H      1.06434968      4.10008491      3.00710760
  H     -0.30870759      2.18574348      3.68839805
  H      1.12467044      1.28446530      4.20569770
  H      0.88883110      1.64531543      2.49309209
  H      6.39032281      2.63868399      0.93124038
  H      5.64783764      4.21381036      0.56006771
  H      4.91072747      2.71167827     -0.06508780
 Cl      4.71043622      5.91100316      3.03943198
 Cl      2.41693104      1.57943912      0.51550931
 Cl      2.71439186      8.99223202      8.76265923
 Cl      9.36987923      9.37456060      6.49660311
 Cl     25.70786562    -27.45420009     23.29132480

