#B3LYP/6-31+G(d) OPT FREQ

62, Energy =    -96.29594282 au

0 1
  N      5.01552168      7.89226661      7.96162272
  C      4.24472715      8.78168430      8.58116908
  N      3.74226822      9.61650926      7.68048562
  C      4.21227462      9.26294019      6.45380891
  C      5.01460912      8.17813357      6.63008580
  C      5.72989563      6.80350301      8.57666165
  C      7.19913533      7.15924748      8.77759846
  C      2.80228946     10.66265661      7.96060890
  H      3.92963154      8.76547430      9.61423207
  H      3.89363299      9.77047092      5.56552626
  H      5.52375234      7.55528391      5.92448910
  H      5.25640106      6.58813173      9.53603255
  H      5.63332458      5.93546921      7.91249049
  H      7.71828279      6.32170953      9.23440072
  H      7.30016003      8.02921750      9.42434235
  H      7.66884287      7.37539450      7.82125651
  H      2.15620945     10.79041146      7.09111799
  H      3.32047737     11.60109420      8.16409070
  H      2.22274565     10.37208741      8.83751018
  N      1.58506685      6.19361174      8.66852894
  C      0.55011486      7.00369576      8.83529319
  N      0.50493398      7.86943943      7.83468894
  C      1.54106355      7.60091197      6.99500699
  C      2.22245025      6.54769247      7.51578022
  C      2.00155812      5.15809611      9.57761854
  C      2.05763459      3.80545798      8.88192351
  C     -0.46128551      8.91051903      7.64221144
  H     -0.14476194      6.96092973      9.64842245
  H      1.71728770      8.20540455      6.12690916
  H      3.08311061      6.02384996      7.14312921
  H      2.98277462      5.42871970      9.98051672
  H      1.28555737      5.13832049     10.40152165
  H      2.27556324      3.02420129      9.60527565
  H      2.82956873      3.80138265      8.11771920
  H      1.09536019      3.60213160      8.41939125
  H     -0.13904036      9.52898707      6.80516902
  H     -0.53013120      9.51780123      8.54480866
  H     -1.43678252      8.47161270      7.42657761
  N      1.42707677      5.26307373      4.67348082
  C      0.24756976      5.87144777      4.64360863
  N      0.38731772      7.05003153      4.04625909
  C      1.69156024      7.19130418      3.67574931
  C      2.34501107      6.06475384      4.07163596
  C      1.66998777      3.96510987      5.24547138
  C      1.48049852      2.86848770      4.20290210
  C     -0.63637173      8.03921560      3.87471277
  H     -0.62052472      5.51941757      5.18467745
  H      2.04878495      8.09057371      3.21876681
  H      3.38146189      5.79660814      4.03368244
  H      2.69633202      3.95775160      5.62201689
  H      0.96197099      3.83874135      6.06643693
  H      1.67537084      1.90118318      4.65651068
  H      2.17159179      3.00694601      3.37370356
  H      0.46139314      2.87505603      3.82062985
  H     -0.96970065      8.07284261      2.83597576
  H     -0.21653216      9.01356567      4.14734293
  H     -1.47635987      7.80048746      4.52191365
 Cl     -1.14988971      5.11765504      7.25732140
 Cl      4.85602003      4.87736619      6.03368005
 Cl     52.06661251    -12.75819243    -42.83894407
 Cl      1.98353074      8.66666432     10.67086610
 Cl      1.46978074     10.35421684      4.84342904

