#B3LYP/6-31+G(d) OPT FREQ

62, Energy =    -96.26254110 au

0 1
  N      8.91902669      7.56490244      6.65140334
  C      7.72258303      7.18605723      7.08947353
  N      7.08165504      6.56819158      6.10292147
  C      7.88578113      6.54596879      5.00517509
  C      9.04347188      7.16988856      5.35006034
  C      9.92028629      8.22247730      7.45385416
  C     11.04499930      7.25639312      7.80878352
  C      5.76021073      6.00473949      6.13114672
  H      7.38373703      7.41312991      8.09624203
  H      7.55398367      6.05445023      4.10103936
  H      9.92422238      7.36469321      4.77405107
  H     10.31102608      9.07863790      6.89732444
  H      9.41660309      8.56254752      8.37015601
  H     11.80065442      7.77670324      8.39003004
  H     11.50978414      6.84254631      6.91469659
  H     10.65034853      6.44208434      8.41032460
  H      5.62692170      5.42923292      5.20811617
  H      5.01106923      6.79512276      6.17641729
  H      5.64304086      5.35901874      6.99955003
  N      3.89114688      2.96080838      1.66230878
  C      3.50007574      4.01394440      2.36830223
  N      3.17394510      4.99503940      1.54019257
  C      3.37216297      4.56551884      0.26259205
  C      3.81665387      3.28340906      0.33820957
  C      4.29797282      1.69481582      2.21363463
  C      3.08805591      0.79563701      2.44074191
  C      2.69923916      6.29614461      1.91031690
  H      3.44334122      4.05725154      3.43587490
  H      3.15911178      5.20917528     -0.56962423
  H      4.08510530      2.58308174     -0.42630312
  H      5.00259743      1.23050605      1.51911752
  H      4.81237320      1.90056317      3.15576101
  H      3.37416536     -0.07425321      3.02578130
  H      2.67926267      0.46254348      1.49034939
  H      2.32051044      1.34996134      2.97650228
  H      2.29736124      6.78215226      1.02071522
  H      3.52075965      6.88801556      2.31774381
  H      1.92162048      6.18809032      2.66571270
  N      0.32241031      3.74526245     -0.03926512
  C      0.79169593      3.89337952     -1.27150416
  N      1.28509064      2.72910671     -1.68452863
  C      1.11936528      1.81284354     -0.69081828
  C      0.50918152      2.45308998      0.34454136
  C     -0.30105314      4.78103439      0.74231306
  C     -1.81781503      4.72344353      0.59495440
  C      1.92612606      2.46284322     -2.94088019
  H      0.85040646      4.84771960     -1.77367627
  H      1.45030393      0.79814875     -0.83797624
  H      0.25403412      2.13007569      1.33375878
  H     -0.01709527      4.61518577      1.78667989
  H      0.08132390      5.73769415      0.38003533
  H     -2.26924404      5.50355820      1.20098983
  H     -2.19530081      3.76018054      0.93234070
  H     -2.10809207      4.87564068     -0.44356368
  H      2.23368045      1.40932333     -2.94390808
  H      2.79675295      3.10748286     -3.05919078
  H      1.23728783      2.64664345     -3.76584379
 Cl      0.88653290      3.39795617      3.52970259
 Cl      7.82250094      8.51796034      9.93765485
 Cl      6.16292499      4.67368747      3.08089787
 Cl      2.52892493     -0.71205017     -2.28021819
 Cl      1.48409828      6.96486265     -1.39041735

