62
Energy =    -96.25792582 au
  N      6.66999358      5.93529476      2.99925869
  C      6.83909246      7.21955866      3.29717130
  N      7.50504849      7.31804277      4.43932633
  C      7.82026843      6.06181474      4.85874827
  C      7.29644327      5.19285164      3.95612823
  C      5.96825997      5.39416625      1.86042452
  C      6.21959671      6.22705338      0.61075372
  C      7.88619440      8.57060964      5.01787360
  H      6.43518209      8.05344081      2.76294261
  H      8.38752857      5.87788561      5.74821726
  H      7.30569700      4.12212574      3.92101013
  H      6.31672790      4.36853813      1.72413400
  H      4.89784738      5.35598524      2.09543819
  H      6.00184208      5.64527543     -0.28120067
  H      7.25990619      6.54515608      0.59061379
  H      5.59566965      7.11725240      0.60764855
  H      8.43820266      8.40490319      5.94057949
  H      6.97853778      9.14681205      5.21183096
  H      8.51177529      9.09917799      4.29442685
  N      4.98817623      5.80503364      7.07040466
  C      5.31741894      4.64534364      7.63076581
  N      5.19053515      3.68430291      6.72559225
  C      4.76430378      4.23715972      5.55525927
  C      4.63910526      5.57433617      5.77311799
  C      5.00670981      7.10364943      7.70020241
  C      6.30745565      7.32733040      8.45794606
  C      5.48789765      2.30292563      6.96851981
  H      5.63488111      4.44174092      8.65053474
  H      4.63147206      3.64374515      4.67080694
  H      4.36386557      6.39334619      5.13236911
  H      4.87957292      7.84405600      6.89972691
  H      4.15880989      7.17547464      8.38841771
  H      6.31569440      8.33090617      8.87193285
  H      7.15264753      7.22470011      7.78495354
  H      6.41827997      6.61112609      9.26824648
  H      6.24843504      1.96503184      6.26547946
  H      4.59145461      1.69824538      6.82944723
  H      5.84549776      2.21215895      7.99702094
  N      3.84969140     -1.83449171      2.22837418
  C      4.53678736     -0.91023710      2.89100483
  N      5.18248591     -1.49168323      3.89536485
  C      4.89356723     -2.82667888      3.87162370
  C      4.05708443     -3.04139264      2.82043381
  C      3.04634649     -1.63713941      1.04486134
  C      3.91826572     -1.20705249     -0.12847682
  C      6.03888312     -0.80531641      4.82138501
  H      4.61373946      0.15048298      2.68646769
  H      5.29757307     -3.50911958      4.59048466
  H      3.56884511     -3.92418846      2.42448712
  H      2.55956688     -2.59905527      0.83411112
  H      2.29179817     -0.87437623      1.25334118
  H      3.29674096     -1.06071530     -1.00700555
  H      4.64975697     -1.98013019     -0.35049551
  H      4.43914689     -0.27764016      0.09294481
  H      6.12420444      0.23323982      4.48477156
  H      7.02488025     -1.26900047      4.83659992
  H      5.61752605     -0.83187777      5.82654425
 Cl      9.04179877      7.90396283      1.87352189
 Cl      5.67794779      2.03146717      3.15080651
 Cl      2.18473298     -4.87326814      1.01873547
 Cl      4.51639729      8.71258804      4.81785727
 Cl      6.25037916      3.15286933     10.22747521
