#B3LYP/6-31+G(d) OPT FREQ

62, Energy =    -96.25731394 au

0 1
  N      5.13301406     10.39273882      2.43046051
  C      5.77269421     11.12418960      3.34645999
  N      5.75333976     10.47380430      4.51292350
  C      4.99604341      9.34324506      4.35326727
  C      4.60972675      9.29098526      3.05439236
  C      4.83179698     10.85598275      1.09683417
  C      4.42553217      9.72645390      0.16564780
  C      6.21237459     11.01327656      5.75943029
  H      6.37392764     11.98324652      3.13598695
  H      4.77449968      8.69085775      5.17837354
  H      3.98027969      8.58610823      2.54366320
  H      4.02720673     11.59477587      1.18173502
  H      5.72044120     11.36996021      0.71551722
  H      4.23568565     10.12914344     -0.82589969
  H      3.52013446      9.23420701      0.51194308
  H      5.21743227      8.98403316      0.09459321
  H      5.90772869     10.34951474      6.56543190
  H      5.75036901     11.99369183      5.89760717
  H      7.29854043     11.12134297      5.76008747
  N      7.86939582      6.35927462      7.21629314
  C      6.58003271      6.49447582      7.52116750
  N      6.44221488      6.42336537      8.84459899
  C      7.68157127      6.23453488      9.39075147
  C      8.57584278      6.19857760      8.36717930
  C      8.46711688      6.41119459      5.90315942
  C      8.33266909      7.80550814      5.30379621
  C      5.19620582      6.52075075      9.55036196
  H      5.74851589      6.65977338      6.85421165
  H      7.82977746      6.14438420     10.44655720
  H      9.65107058      6.06082171      8.31787043
  H      9.52711764      6.15024574      6.03617309
  H      7.97752953      5.67577200      5.26016590
  H      8.82944049      7.83167200      4.33855124
  H      8.81028682      8.53357281      5.95460165
  H      7.28696074      8.07220718      5.16766763
  H      4.92808458      5.55705730      9.98597082
  H      4.42542567      6.82372275      8.83735678
  H      5.27129133      7.26195661     10.34567215
  N      0.94153464      9.42810535      4.45838382
  C      1.65278304      8.30617920      4.43440342
  N      0.85584123      7.27241189      4.67631310
  C     -0.41830312      7.73759228      4.79138431
  C     -0.36619444      9.08844417      4.65367022
  C      1.43871428     10.75544433      4.18827177
  C      1.25124461     11.11856738      2.72064277
  C      1.30807276      5.91337537      4.68278702
  H      2.71644354      8.24475788      4.36263822
  H     -1.25225676      7.08776947      4.96130133
  H     -1.14614323      9.82061592      4.68366338
  H      0.91296372     11.46380971      4.83362952
  H      2.50129273     10.78812858      4.43203816
  H      1.84381868     12.00252116      2.50645247
  H      0.20669550     11.31894176      2.49060269
  H      1.59396644     10.29175766      2.10324802
  H      1.66720083      5.66479391      3.68176454
  H      0.49527314      5.24961321      4.96821054
  H      2.13725883      5.82422598      5.38709979
 Cl      4.11904300     12.95704967      3.83235983
 Cl      1.89140572      7.74804267      1.83379147
 Cl    -20.90417714     -5.73561366     27.97266779
 Cl      3.58087742      7.41782288      6.76853269
 Cl     11.46288811      5.79364738      7.16998183

