62
Energy =    -96.25257221 au
  N      4.33323662     10.72949775      2.04182369
  C      5.22589208      9.91363763      2.59686278
  N      5.36880807     10.23636047      3.87492142
  C      4.54124999     11.28576696      4.14578906
  C      3.88725846     11.59448421      2.99208383
  C      3.86823931     10.69840321      0.67662926
  C      3.01691878      9.45874139      0.42969483
  C      6.27381133      9.59301435      4.78275254
  H      5.76442370      9.09822100      2.13148433
  H      4.47359798     11.71117829      5.12543089
  H      3.17784814     12.36396242      2.72939824
  H      3.28193187     11.61419385      0.52087735
  H      4.73536255     10.69539285      0.01126591
  H      2.67330629      9.45198106     -0.60081624
  H      2.14819084      9.46842021      1.08290452
  H      3.59109801      8.55339424      0.61729365
  H      6.72234031      8.74682791      4.26440997
  H      5.74713490      9.25506546      5.67894141
  H      7.05529600     10.28980524      5.08859490
  N      7.08865211      4.30522900      4.69756789
  C      7.32459251      5.59416567      4.92023974
  N      7.74372671      5.74798838      6.17153510
  C      7.77674304      4.51680725      6.75789589
  C      7.36220710      3.60624338      5.83428910
  C      6.63048335      3.75409814      3.44481274
  C      7.54316902      2.62936762      2.97584806
  C      8.05851259      6.99430241      6.81332154
  H      7.21459717      6.36934435      4.17422149
  H      8.10855102      4.38784432      7.76728484
  H      7.23540605      2.53126835      5.88938380
  H      5.61983554      3.36111611      3.58709176
  H      6.60041377      4.57566080      2.72453471
  H      7.21841370      2.28240984      1.99872688
  H      7.49492398      1.79572471      3.67596430
  H      8.57010165      2.97935837      2.89969011
  H      8.55812626      6.79419078      7.76375830
  H      7.14231787      7.55833276      7.00764206
  H      8.70310496      7.59114258      6.17042836
  N      5.54948059      6.71721880     10.15329095
  C      6.24072791      7.83359175      9.94884472
  N      5.78759130      8.78417163     10.76649768
  C      4.71553189      8.28000991     11.44547335
  C      4.57257363      6.98344466     11.06591724
  C      5.83139258      5.49303691      9.44200299
  C      5.10215102      4.28559623      9.99959779
  C      6.22473706     10.14724012     10.71480614
  H      7.15006568      7.87981043      9.38223427
  H      4.14659646      8.86997718     12.13478068
  H      3.85654824      6.25376484     11.37999188
  H      5.56254469      5.64836510      8.39268249
  H      6.91805503      5.36118942      9.51367215
  H      5.41416365      3.40569940      9.44352041
  H      4.02332154      4.38776294      9.89480729
  H      5.35070188      4.13589486     11.04819039
  H      5.73836888     10.72311257     11.49972262
  H      5.96133858     10.55276320      9.73403794
  H      7.30718100     10.19031267     10.83421622
 Cl      2.20912143     13.57196190      1.02730569
 Cl      6.84932605      0.39572444      5.54754633
 Cl      7.11703999      7.35929850      2.19271052
 Cl      5.07046827      8.75935821      7.84856990
 Cl      8.93932528      6.45073272     10.10904633
