#B3LYP/6-31+G(d) OPT FREQ

62, Energy =    -96.25716900 au

0 1
  N      4.61233718      7.16846726     -0.96698466
  C      3.64968727      7.67832853     -0.19745057
  N      2.91535486      6.68303147      0.29115528
  C      3.42063906      5.50743279     -0.17081405
  C      4.48322812      5.80894254     -0.96318625
  C      5.60002177      7.96201002     -1.65924882
  C      7.01388697      7.46339102     -1.39150356
  C      1.83659329      6.80501314      1.22639018
  H      3.54469642      8.74764967     -0.01458763
  H      3.02226806      4.56156320      0.12779099
  H      5.13726799      5.16119954     -1.50794944
  H      5.39186051      7.92838782     -2.73438901
  H      5.47102504      8.99100704     -1.30970738
  H      7.72797112      8.11599439     -1.88475375
  H      7.15751009      6.45498457     -1.77325351
  H      7.22980484      7.46463661     -0.32726728
  H      2.09023614      6.19431747      2.09909919
  H      0.90645760      6.43675309      0.79200943
  H      1.72652214      7.84807746      1.51147442
  N      1.85262042      1.76069208      2.92829474
  C      1.22627391      2.92851333      2.76742868
  N      0.86879087      3.39406884      3.96525188
  C      1.19199438      2.45451826      4.90289234
  C      1.80238513      1.43313296      4.25660915
  C      2.30897003      0.90619144      1.86293509
  C      3.16092562      1.67448864      0.85764365
  C      0.16186057      4.62087597      4.17957945
  H      1.22481415      3.50881022      1.87116813
  H      0.97449061      2.58967336      5.94242169
  H      2.20912950      0.51629134      4.63111906
  H      2.88547148      0.09679951      2.31748849
  H      1.42555172      0.48551968      1.36841485
  H      3.78575940      0.98908577      0.29145963
  H      3.79646956      2.38627914      1.37980612
  H      2.52580475      2.21552732      0.16156392
  H     -0.19913780      4.65834033      5.20517533
  H     -0.68345705      4.65855483      3.49026251
  H      0.82491925      5.46864863      3.99533953
  N      7.12112719      9.00024491      2.11577728
  C      7.69622043      7.85233045      2.45249131
  N      6.74767088      6.94147563      2.65119084
  C      5.53529300      7.52839490      2.43640022
  C      5.76836611      8.82605150      2.09784503
  C      7.84763447     10.21945268      1.84556921
  C      7.58804320     10.72725821      0.43384929
  C      6.94565238      5.57185124      3.03483370
  H      8.78365701      7.73423192      2.50472622
  H      4.63013820      6.96641037      2.55651062
  H      5.09295261      9.60458119      1.79355233
  H      7.53609778     10.97298799      2.57465913
  H      8.90841280      9.98654261      1.98596192
  H      8.07000530     11.69224927      0.30619576
  H      6.52220341     10.84377885      0.24977176
  H      8.00454263     10.03727118     -0.29414406
  H      7.65321676      5.09244464      2.35947371
  H      5.98315479      5.05900192      2.99443874
  H      7.34184094      5.51652132      4.04914164
 Cl     11.67797562    -14.45823568     28.82368843
 Cl     10.72878152      8.29953780      2.21685990
 Cl      4.04813785     10.75658879     -0.04561281
 Cl      3.64440002      4.64716265      2.88435633
 Cl     -0.96107383      2.18202975      1.87639557

