#B3LYP/6-31+G(d) OPT FREQ

62, Energy =    -96.26295251 au

0 1
  N      7.32936924      6.43125083      6.49490994
  C      7.11663728      5.86606685      5.30959458
  N      8.27174984      5.74940370      4.66778261
  C      9.24700050      6.30161580      5.44983000
  C      8.65303647      6.72667840      6.59457383
  C      6.30440840      6.76914497      7.44731813
  C      5.89055661      5.54563832      8.25418715
  C      8.43277151      5.21186798      3.34746448
  H      6.19063372      5.46032235      4.95486826
  H     10.26957382      6.35634038      5.13728116
  H      9.07196202      7.18435763      7.46603840
  H      6.70558428      7.53874416      8.10980356
  H      5.46158549      7.18533886      6.88825642
  H      5.16092573      5.82713319      9.00857847
  H      6.76820331      5.12799359      8.74354647
  H      5.45771873      4.79202840      7.60159337
  H      9.45300985      4.85840329      3.21379217
  H      8.21666553      5.98276683      2.60744692
  H      7.72854337      4.38430629      3.22437170
  N      8.60702277      2.41809578      7.03512123
  C      8.88161462      2.29962947      8.33539628
  N      7.73865415      2.12085556      9.00851389
  C      6.70744999      2.24706372      8.11141820
  C      7.24605890      2.43180577      6.88336906
  C      9.57886216      2.65364423      5.99650858
  C      9.29296150      1.81360072      4.76013544
  C      7.64287165      2.14437092     10.43861764
  H      9.85877372      2.16373600      8.74944142
  H      5.68403009      2.19158879      8.41816429
  H      6.77453932      2.58027031      5.92505032
  H      9.56300657      3.71848270      5.74774881
  H     10.56302010      2.42033327      6.41238279
  H     10.05758318      1.99388006      4.00985721
  H      8.32631915      2.07231124      4.33433379
  H      9.29311620      0.75471125      5.00924902
  H      6.59768647      2.10246625     10.73479593
  H      8.09091673      3.07821048     10.79068926
  H      8.18225765      1.30205064     10.87481468
  N      6.94100192      7.18175114      0.16040032
  C      6.24749338      7.14687572      1.29544084
  N      5.52751816      6.03255916      1.32779615
  C      5.76629958      5.33857840      0.17795407
  C      6.65720618      6.06137549     -0.55577460
  C      7.87609019      8.20455030     -0.24329499
  C      9.08466194      8.22388049      0.68501267
  C      4.66943450      5.64483490      2.41004344
  H      6.27611815      7.85676135      2.10965624
  H      5.30405330      4.39421178     -0.02011554
  H      7.11142797      5.91859853     -1.52712447
  H      8.17696535      7.96448067     -1.27376428
  H      7.37028360      9.17318355     -0.22048985
  H      9.77428605      8.99855456      0.36302295
  H      9.60095006      7.26770496      0.64249977
  H      8.78507017      8.42693379      1.71225795
  H      4.73400814      6.40948264      3.18320817
  H      4.99826703      4.68573055      2.82130895
  H      3.64022771      5.54815248      2.06439372
 Cl    -13.30356779    -10.60551290     28.20802444
 Cl      8.32288562      6.79776855     -3.18317456
 Cl      9.31430188      4.68160461      9.03197036
 Cl      6.05094829      2.92981045      3.86941089
 Cl      6.21511971      8.19567448      4.29914287

