#B3LYP/6-31+G(d) OPT FREQ

62, Energy =    -96.26712727 au

0 1
  N      6.62886005      2.99621169      7.15212209
  C      7.87130675      2.53575749      7.29853826
  N      8.70783440      3.57277845      7.36087809
  C      7.97358869      4.72078808      7.25940675
  C      6.66981634      4.35649910      7.13327524
  C      5.42674870      2.21403891      7.02770090
  C      4.76940536      1.99952419      8.38924459
  C     10.13361982      3.45804190      7.49320949
  H      8.22293760      1.50927473      7.28586350
  H      8.42116123      5.69271228      7.28105936
  H      5.78290121      4.93288463      6.95071924
  H      4.75460021      2.77657456      6.36618628
  H      5.68834829      1.25431173      6.57978402
  H      3.86994237      1.40503063      8.26676263
  H      4.49536549      2.95458383      8.82994758
  H      5.44479026      1.47637444      9.06520526
  H     10.45208278      3.76332828      8.49135783
  H     10.62991765      4.08781054      6.75357433
  H     10.39852910      2.40709633      7.32724142
  N      5.85142505      6.19083729      2.36370799
  C      4.58299979      5.83605039      2.14984752
  N      4.56685815      4.64186220      1.55472705
  C      5.85784436      4.26317570      1.30629616
  C      6.65995369      5.22578651      1.81922283
  C      6.28256311      7.40338059      3.00101548
  C      6.73053133      7.12897750      4.43426474
  C      3.37829611      4.01502644      1.05335380
  H      3.73035909      6.30579233      2.59338402
  H      6.10631863      3.32890290      0.84156938
  H      7.72776454      5.30462833      1.83533551
  H      7.09464977      7.84155000      2.41271905
  H      5.43624699      8.09297967      2.98682695
  H      6.90812328      8.06263127      4.96057744
  H      7.64491529      6.53845334      4.44159916
  H      5.95664578      6.56665715      4.95013417
  H      2.71544943      3.74101914      1.87692764
  H      3.65400019      3.13006998      0.48546970
  H      2.86506378      4.73222456      0.40540365
  N      8.14125190      1.03464052      3.68056496
  C      6.89624016      0.69622437      3.34740211
  N      6.07781873      1.70453675      3.64785375
  C      6.83528032      2.75712277      4.07281221
  C      8.12408553      2.33452595      4.10414340
  C      9.31706591      0.20747674      3.55605651
  C     10.15699268      0.64764616      2.36163279
  C      4.66911158      1.73202488      3.38426894
  H      6.58784392     -0.28706831      3.06411596
  H      6.37530376      3.69059512      4.33341371
  H      9.02250162      2.83480565      4.39732591
  H      9.87385313      0.27346817      4.49621954
  H      8.98105849     -0.82185801      3.41493679
  H     10.97416782     -0.05031136      2.20157045
  H     10.56953998      1.63984450      2.52539066
  H      9.53064747      0.67606371      1.47252826
  H      4.26850256      2.67498637      3.75302933
  H      4.17308018      0.89858774      3.88673743
  H      4.51813237      1.63857499      2.30554167
 Cl     26.30517491     30.11200608     24.89546710
 Cl      4.21400596      4.66891215      5.11162107
 Cl      3.92608366      7.31859615      0.25514470
 Cl      9.90666465      0.21568610      6.90687903
 Cl      6.78444598      0.96459964      0.80882434

