#B3LYP/6-31+G(d) OPT FREQ

62, Energy =    -96.26221501 au

0 1
  N      5.96562992     10.25542468      7.59912745
  C      6.00461775      9.34865283      6.62621930
  N      5.80734087      8.14340381      7.14534086
  C      5.71464032      8.27524879      8.49960820
  C      5.81415002      9.60068124      8.78269098
  C      6.19703543     11.66270947      7.40088846
  C      5.04033288     12.30972661      6.64987288
  C      5.76771576      6.91093754      6.41239263
  H      6.02091116      9.57801191      5.57395241
  H      5.59178006      7.43263595      9.14851949
  H      5.79695594     10.11282566      9.72309982
  H      6.33584341     12.12395319      8.38229314
  H      7.12754432     11.75341971      6.83213171
  H      5.27522213     13.34776464      6.43186040
  H      4.12900598     12.27399085      7.24400191
  H      4.86216356     11.78736833      5.71190998
  H      5.28382872      7.06343595      5.45028431
  H      5.21319393      6.15833570      6.96782284
  H      6.77838804      6.54621741      6.22832403
  N      7.35065620      1.37783792      4.28917203
  C      7.20766856      2.00358348      5.45597582
  N      8.24113240      2.82280141      5.63919298
  C      9.10720911      2.65428325      4.59790639
  C      8.54966362      1.75561181      3.75041658
  C      6.39585169      0.47194477      3.71058103
  C      5.50543903      1.20385560      2.71015017
  C      8.42727844      3.62491678      6.80975551
  H      6.32230753      1.99442226      6.05541755
  H     10.03616147      3.18469227      4.53981963
  H      8.90458671      1.35850610      2.82156675
  H      6.93766324     -0.34845079      3.23102664
  H      5.80268104      0.06278982      4.52999153
  H      4.65274568      0.58911384      2.43670213
  H      6.06298235      1.45462917      1.81096481
  H      5.15230701      2.13010382      3.15659784
  H      7.57593156      4.29861995      6.91984098
  H      9.34374927      4.20447719      6.71924401
  H      8.48323085      2.96441397      7.67866498
  N      6.42559062      7.39558827      2.62008960
  C      6.58102004      8.71237909      2.51818368
  N      7.56665852      9.09577061      3.32315561
  C      8.05633956      7.99182086      3.95602591
  C      7.34590124      6.92284192      3.50935686
  C      5.43282862      6.58279744      1.96385302
  C      5.93671866      6.08133734      0.61490923
  C      7.94196102     10.45137088      3.60517820
  H      5.99731061      9.36419592      1.90232126
  H      8.80804957      8.08118809      4.71486064
  H      7.34938069      5.88523698      3.78581161
  H      5.22864721      5.73390200      2.62673016
  H      4.52734655      7.18039955      1.84246924
  H      5.17134993      5.47017429      0.14533220
  H      6.82628827      5.47188559      0.75437747
  H      6.17700620      6.91248727     -0.04671107
  H      7.03349585     11.05486019      3.62322441
  H      8.62999405     10.83524560      2.85025476
  H      8.41504064     10.46760110      4.58966424
 Cl      5.71301215      4.28416435      4.43339733
 Cl      7.92909750      0.16537387      7.02380227
 Cl    -29.13064063     -4.40681928    -10.06030719
 Cl      4.60324766     10.16519434      3.86544952
 Cl      8.72641906      9.51786674      6.73760600

