#B3LYP/6-31+G(d) OPT FREQ

62, Energy =    -96.28158772 au

0 1
  N      4.73181448      5.79344411      5.40667028
  C      3.79985034      5.74876052      6.35206237
  N      3.58052390      6.97987979      6.79285824
  C      4.40365602      7.83255020      6.12278407
  C      5.12268612      7.08657700      5.24327183
  C      5.24916862      4.67263986      4.65615955
  C      4.12099367      3.85029054      4.04680891
  C      2.70732674      7.33067053      7.87265898
  H      3.25431998      4.86675170      6.67869859
  H      4.43054803      8.88083820      6.33461942
  H      5.87537925      7.35014098      4.52039237
  H      5.89803774      5.08815478      3.87930108
  H      5.84116108      4.04466022      5.32986997
  H      4.53945977      3.01191748      3.49748883
  H      3.53760253      4.45932634      3.36027611
  H      3.46192566      3.46424713      4.82035536
  H      2.13154234      8.22144675      7.62016835
  H      3.32378296      7.53315518      8.75332359
  H      2.03907364      6.49513750      8.07093106
  N     10.10674802      5.08919813      4.16133721
  C      8.99850366      5.32833132      4.85372053
  N      9.22820884      6.29445001      5.73353827
  C     10.52340093      6.69758015      5.58691823
  C     11.07479865      5.94013670      4.60528286
  C     10.24495684      4.10773894      3.11785439
  C      9.98217099      4.73413376      1.75237400
  C      8.25122391      6.91389334      6.57942735
  H      8.07785511      4.79987305      4.73974313
  H     10.94906878      7.47564744      6.18657406
  H     12.06730881      5.93637217      4.20287153
  H     11.25368473      3.68765289      3.17272758
  H      9.52580401      3.31231034      3.32436737
  H      9.90798140      3.96296044      0.98984026
  H     10.78230512      5.42153792      1.48382278
  H      9.04925588      5.29311711      1.78889939
  H      7.70010173      7.66310819      6.00742986
  H      8.73850172      7.39582337      7.42413074
  H      7.54213146      6.17877176      6.95146822
  N      7.06783713      4.14589182      9.04150925
  C      6.05944234      4.54305854      9.81118166
  N      4.92241408      4.06345612      9.31852065
  C      5.20841886      3.36673236      8.17940857
  C      6.55543891      3.41690899      8.00634099
  C      8.46012481      4.46296502      9.23668673
  C      9.04474586      3.67694711     10.40603512
  C      3.61085803      4.31846452      9.84190954
  H      6.15007644      5.12530810     10.70447027
  H      4.41816841      2.92155370      7.60388533
  H      7.21295006      3.01336854      7.25726081
  H      8.98458742      4.19609160      8.31284093
  H      8.53848804      5.53743308      9.41933331
  H     10.09619058      3.92676529     10.51913075
  H      8.96511070      2.60993627     10.21120884
  H      8.52680140      3.90811040     11.33596153
  H      3.44928682      3.75684440     10.76450442
  H      2.87704617      4.00885704      9.09221059
  H      3.51813124      5.38496753     10.04646339
 Cl      9.43151581      3.05582203      6.33938909
 Cl      5.79888935      7.10370777      9.02859774
 Cl      7.60736695      6.92028045      3.09462532
 Cl      1.98910078      3.23646014      7.12150649
 Cl    -13.83361433     -5.49153414    -33.08766865

