#B3LYP/6-31+G(d) OPT FREQ

62, Energy =    -96.26022513 au

0 1
  N     12.85250554      1.05258646      8.84775641
  C     12.27512498      0.11726894      9.60291903
  N     11.93799856     -0.91563130      8.82856320
  C     12.40498680     -0.67309660      7.56826582
  C     12.97409134      0.55869964      7.57914442
  C     13.38180899      2.31582126      9.29620467
  C     14.86593408      2.17924504      9.62153725
  C     11.36084975     -2.14854937      9.27444885
  H     11.96843032      0.25147104     10.61856774
  H     12.26306907     -1.39214465      6.78724854
  H     13.41561927      1.14520375      6.80067679
  H     13.21026455      3.04966994      8.50108142
  H     12.82891516      2.61385962     10.18989130
  H     15.22805238      3.08193459     10.10547602
  H     15.43965105      2.01240152      8.71309290
  H     15.00831136      1.32839061     10.28518552
  H     12.13218588     -2.74708723      9.76325737
  H     10.95622103     -2.67787724      8.41137242
  H     10.56613876     -1.94922794      9.99250355
  N     -2.84933637      5.80468526      6.33846662
  C     -4.02118699      6.27830742      5.92879027
  N     -4.10509358      7.56121722      6.26251815
  C     -2.95852193      7.92512330      6.89742906
  C     -2.16573805      6.82024738      6.94493819
  C     -2.39840493      4.45020465      6.12911679
  C     -1.25613704      4.40398925      5.12082041
  C     -5.20523896      8.45193570      6.01849485
  H     -4.75960490      5.64436897      5.44132507
  H     -2.84184841      8.94042024      7.25201377
  H     -1.18928663      6.68387218      7.36242121
  H     -2.07615182      4.03353221      7.08787632
  H     -3.26408628      3.88869814      5.75059288
  H     -0.94493796      3.37429384      4.97400939
  H     -0.40090021      4.98510340      5.46249004
  H     -1.58993448      4.80059344      4.16644296
  H     -5.36639732      8.56677668      4.94702333
  H     -4.94892576      9.42270077      6.46217104
  H     -6.11432665      8.05899627      6.47156869
  N     10.90514768     -0.30584165      4.13637533
  C     10.23659547     -0.07461316      5.26238290
  N     10.44916874      1.18172856      5.63624047
  C     11.26085327      1.77815952      4.72184140
  C     11.54861519      0.84200324      3.77780908
  C     10.90114332     -1.55813604      3.42314095
  C      9.86815199     -1.53923294      2.30205967
  C      9.93922525      1.84178472      6.80370819
  H      9.72586571     -0.86325618      5.80228429
  H     11.61775409      2.78198067      4.88871071
  H     12.15835932      0.90546190      2.90062585
  H     11.90113416     -1.73161532      3.01959827
  H     10.65439365     -2.33731010      4.15604038
  H      9.89352100     -2.48300348      1.76566003
  H     10.06748815     -0.73029542      1.60055726
  H      8.87280639     -1.40729780      2.71721330
  H     10.63330409      2.65602126      7.04960160
  H      9.85975308      1.13468952      7.62595133
  H      8.95539110      2.26758676      6.59929934
 Cl     -3.70679322     10.97973865      7.50853291
 Cl     12.31936219      4.10024529      6.57946195
 Cl     14.16293530     -1.00317795     10.91927888
 Cl      9.95426462     -3.00018586      6.22105629
 Cl     -5.38135850      3.68336117      4.86723553

