#B3LYP/6-31+G(d) OPT FREQ

62, Energy =    -96.29674100 au

0 1
  N      4.98546355      7.76613583      8.38782175
  C      5.07177907      8.07432750      7.09780533
  N      4.38163017      9.18615364      6.87099161
  C      3.84956973      9.60486392      8.05317618
  C      4.23211771      8.71260209      9.00829376
  C      5.57542454      6.61515792      9.02068923
  C      6.91839528      6.96878336      9.64988978
  C      4.17612045      9.80079951      5.59220305
  H      5.51179506      7.44549255      6.33691953
  H      3.22435836     10.47202683      8.10639771
  H      3.97396295      8.62081814     10.04463598
  H      4.86925416      6.27922423      9.79096112
  H      5.70181235      5.84401415      8.25926140
  H      7.33711820      6.08828197     10.12800651
  H      6.78971970      7.74128068     10.40440084
  H      7.61855565      7.32322733      8.89466142
  H      4.42183178      9.08418003      4.81291071
  H      4.80168656     10.68873731      5.48743566
  H      3.12239054     10.09458048      5.50691732
  N      0.86609524      7.20134402      8.41418101
  C      1.17354126      5.98248382      8.83445873
  N      2.14703431      5.49624971      8.07925281
  C      2.47453462      6.43280130      7.14481408
  C      1.67155213      7.50822794      7.35874084
  C     -0.10639773      8.08138485      9.00656005
  C      0.51783561      8.86088272     10.16045269
  C      2.75915403      4.21127204      8.23790280
  H      0.70643672      5.46646276      9.64710719
  H      3.24819619      6.25665832      6.42133355
  H      1.58086994      8.44885795      6.84591766
  H     -0.45672824      8.76495360      8.23048856
  H     -0.94267600      7.47159302      9.35569558
  H     -0.25452092      9.33811113     10.75714040
  H      1.18822546      9.62367881      9.77370936
  H      1.09401178      8.18724717     10.79062220
  H      3.15960179      4.13354131      9.25017440
  H      3.56172022      4.11015621      7.51035378
  H      2.01373165      3.42975248      8.08294010
  N      1.70235815      5.48934603      4.25419686
  C      0.50476704      5.73625389      4.77609006
  N      0.25692413      7.03634532      4.68273365
  C      1.31460515      7.63819350      4.07379279
  C      2.22437098      6.66347129      3.80164699
  C      2.35224921      4.20538234      4.19637859
  C      2.17037748      3.56004824      2.82680040
  C     -0.90208760      7.69579823      5.20973478
  H     -0.11023456      5.04894926      5.34616988
  H      1.35189407      8.70164622      3.94762270
  H      3.20916045      6.71190398      3.38536882
  H      3.41531962      4.36866175      4.40511455
  H      1.91837080      3.57589277      4.97497754
  H      2.67300093      2.59734466      2.80721770
  H      2.59999285      4.18918833      2.05061527
  H      1.11396963      3.40762501      2.61211150
  H     -1.67299761      7.79121218      4.44321266
  H     -0.60682280      8.69200507      5.54551894
  H     -1.28696931      7.10230178      6.03855105
 Cl     -0.91241565      4.72741494      7.30194037
 Cl      5.21081941      5.71653844      5.01875407
 Cl     51.24588924    -12.59982040    -41.59906597
 Cl      2.99003066      6.43797062     11.02339574
 Cl      0.95557479     10.46915104      5.84189456

