#B3LYP/6-31+G(d) OPT FREQ

62, Energy =    -96.25724954 au

0 1
  N      5.53481327      1.15595725      8.30149130
  C      4.85955857      2.27576766      8.05238097
  N      3.56129287      2.00745006      8.05442289
  C      3.40190868      0.67664452      8.30198265
  C      4.64376428      0.14121826      8.46004446
  C      6.96656827      1.01491515      8.42345595
  C      7.51602955      1.94931576      9.49386943
  C      2.51726127      2.96696542      7.84157614
  H      5.26219799      3.26344063      7.88738347
  H      2.43497720      0.21960261      8.32842624
  H      4.99548235     -0.85188437      8.69941654
  H      7.15538323     -0.03395273      8.69168174
  H      7.42826804      1.23608564      7.45674630
  H      8.59204020      1.81964132      9.56842469
  H      7.07352348      1.70937794     10.45783831
  H      7.30388297      2.98977222      9.25577051
  H      1.83608095      2.96889323      8.69243573
  H      1.95077449      2.70911465      6.93996726
  H      2.96819559      3.95106564      7.73226901
  N      3.67474800      6.75259106      4.56996744
  C      4.22470096      7.53144749      5.49387134
  N      4.34523768      8.76221938      5.00704201
  C      3.85532363      8.77858548      3.73835524
  C      3.43083051      7.51507167      3.46425161
  C      3.31043817      5.36674764      4.76049309
  C      1.80699481      5.23880585      4.96205612
  C      4.89630777      9.91054431      5.67046317
  H      4.54629937      7.16336316      6.45898352
  H      3.84201009      9.70548985      3.18106461
  H      2.98587993      7.10840593      2.58010964
  H      3.62495771      4.79583362      3.88375728
  H      3.84899184      5.01081570      5.64228711
  H      1.52930340      4.18990023      5.03893763
  H      1.26662312      5.67744339      4.12548821
  H      1.50705544      5.74455133      5.87603691
  H      4.41515158     10.05366004      6.63702264
  H      4.71976278     10.78075210      5.02461135
  H      5.96751144      9.77958689      5.82454802
  N      3.74084700      1.58686097      2.33463996
  C      4.36051875      1.91628608      1.20522426
  N      3.72921762      2.94579012      0.65320864
  C      2.68176685      3.28698521      1.46005955
  C      2.68594607      2.43131278      2.51722894
  C      4.11542649      0.52155845      3.23540360
  C      4.28110408      1.03818747      4.65968260
  C      4.11378882      3.56287609     -0.58462882
  H      5.18318012      1.41435371      0.69998567
  H      2.01526342      4.09152351      1.22663640
  H      2.02104679      2.34532931      3.36762610
  H      3.32787096     -0.23739394      3.22155083
  H      5.04057559      0.08143889      2.85696890
  H      4.63647358      0.23262662      5.29617072
  H      3.32112025      1.38309465      5.03883686
  H      4.99623335      1.85681344      4.69492630
  H      4.61187735      4.51538489     -0.39847664
  H      3.23574900      3.73207968     -1.20616767
  H      4.80932908      2.87843067     -1.08808505
 Cl      4.08577877     11.93115261      3.19596899
 Cl      0.86819241      1.87293325      5.13427534
 Cl      5.11336721      5.48678708      7.75726351
 Cl      6.70751735     -2.16955538      9.35823288
 Cl      6.05849483      1.01434359     -1.21923510

