62
Energy =    -96.27150711 au
  N      4.87788587      5.43429647      7.64677416
  C      4.43767276      6.31081813      8.54543642
  N      5.11905612      6.15226183      9.67771363
  C      6.02126994      5.14688039      9.49645701
  C      5.87111412      4.69665193      8.22384904
  C      4.47832722      5.28636890      6.26517365
  C      3.70084603      6.49074543      5.76198572
  C      5.04521017      6.99359314     10.83760163
  H      3.66610959      7.03523883      8.39471847
  H      6.72216484      4.89357954     10.26721731
  H      6.41784054      3.96830781      7.66040722
  H      5.40422574      5.13836886      5.69680900
  H      3.87773084      4.37392870      6.17102846
  H      3.59593985      6.44456683      4.68211565
  H      4.22216719      7.40835612      6.02191522
  H      2.70293014      6.52306656      6.19506008
  H      4.92000997      8.02443280     10.50683279
  H      5.98741789      6.89807460     11.38128314
  H      4.21221391      6.70652775     11.48090712
  N      6.74701288      7.73950890      4.52460178
  C      6.64240090      6.72606369      3.67284471
  N      5.77102876      7.04823056      2.72172629
  C      5.31100149      8.30538988      2.96341208
  C      5.92648679      8.74036610      4.09752742
  C      7.60898579      7.76589147      5.67902602
  C      8.87153099      8.56968389      5.38756721
  C      5.35653727      6.23096781      1.61593997
  H      7.14315677      5.78208258      3.80679763
  H      4.58101188      8.74375859      2.29636034
  H      5.82322669      9.65564534      4.64216508
  H      7.05405108      8.20821225      6.51214100
  H      7.85662949      6.72776104      5.91322613
  H      9.51164514      8.58233762      6.26527109
  H      8.62182059      9.59638300      5.12711536
  H      9.42407700      8.12388729      4.56261781
  H      6.20241449      6.02035976      0.96212631
  H      4.59063718      6.79186191      1.06117835
  H      4.94557465      5.28901619      1.97701037
  N      8.95808019      8.67546819      9.34532541
  C      8.49799473      7.45922483      9.06505298
  N      9.50814826      6.68450866      8.67778991
  C     10.65562494      7.41138551      8.78079401
  C     10.31362684      8.65862169      9.19811320
  C      8.16634513      9.77676372      9.83443202
  C      8.18997867      9.81271698     11.35808537
  C      9.42430942      5.28648543      8.37075010
  H      7.45893183      7.20656483      9.02920559
  H     11.61646189      6.99651025      8.55405446
  H     10.92231388      9.51661851      9.39630551
  H      8.56754025     10.70304385      9.41354347
  H      7.14741824      9.62910376      9.46529364
  H      7.44291507     10.50844988     11.72786089
  H      9.16891212     10.11552687     11.72567390
  H      7.97241143      8.81839811     11.74026825
  H      9.00431028      4.76761002      9.23257161
  H     10.42111523      4.90312039      8.16623808
  H      8.78672035      5.10706306      7.50038186
 Cl      8.33032167      6.31664233     11.49110050
 Cl      5.48393606      8.87063201      8.03469870
 Cl      7.72161851      4.34819340      5.54422158
 Cl      3.27049479      8.46722838      0.50351691
 Cl     34.55146659    -17.11506320     -2.61352866
