#B3LYP/6-31+G(d) OPT FREQ

62, Energy =    -96.25695600 au

0 1
  N      1.33009134      2.38302937      2.48927685
  C      2.32721594      2.42617970      3.36365328
  N      2.55694466      3.69188755      3.69620462
  C      1.65190009      4.47926091      3.05352777
  C      0.88122270      3.65815990      2.29426926
  C      0.78009271      1.17466268      1.93038024
  C     -0.31612581      0.62506858      2.83684810
  C      3.48347652      4.14632058      4.69030188
  H      2.91214020      1.57669965      3.65546234
  H      1.65126646      5.54626466      3.17284361
  H      0.06364822      3.87789287      1.63878006
  H      0.39102939      1.40267340      0.93370959
  H      1.60982178      0.46491762      1.83666962
  H     -0.55977879     -0.39716271      2.55930463
  H     -1.21742161      1.23409341      2.77227333
  H      0.03284876      0.64742844      3.86753124
  H      3.13771385      3.79827221      5.66634866
  H      3.51244893      5.23504336      4.66930064
  H      4.47526666      3.73963211      4.49426747
  N      4.02729821     10.01247248      1.18649262
  C      4.17641778     10.95183694      0.25828594
  N      2.99572578     11.51091366      0.02123390
  C      2.06723040     10.90678065      0.82084642
  C      2.71822488      9.96506715      1.55439626
  C      5.06151615      9.17881666      1.75536154
  C      6.13303773     10.02866581      2.42728489
  C      2.77333618     12.57119327     -0.92042873
  H      5.07829149     11.29170368     -0.24347826
  H      1.03529337     11.18840268      0.80937518
  H      2.39144402      9.25857164      2.30555887
  H      4.56908106      8.51990082      2.48353817
  H      5.50465538      8.57260439      0.96032642
  H      6.89446666      9.37872862      2.85204641
  H      5.69256285     10.61644553      3.23118747
  H      6.60339180     10.70393380      1.71267015
  H      3.75431192     12.87751513     -1.30781928
  H      2.28967867     13.41609313     -0.42913498
  H      2.14393932     12.22467036     -1.74098647
  N      3.39591381      0.04219607      6.98389673
  C      2.57556075     -0.79174468      6.35758090
  N      2.98874115     -0.95446493      5.11012804
  C      4.12068203     -0.21994244      4.93155807
  C      4.37525525      0.40851151      6.10795674
  C      3.29221019      0.45124635      8.35735153
  C      4.16875198     -0.43357242      9.23783943
  C      2.39999524     -1.80261288      4.11647543
  H      1.69428758     -1.22095785      6.78494165
  H      4.60650444     -0.18146148      3.97444874
  H      5.15608680      1.08768619      6.38287356
  H      3.58186576      1.50408816      8.42555880
  H      2.24456257      0.36083516      8.64909369
  H      3.96524356     -0.24713221     10.28917020
  H      5.22232148     -0.24761650      9.04109019
  H      3.95405504     -1.47585571      9.00359405
  H      2.63776288     -2.84272374      4.34621539
  H      2.80949963     -1.52252402      3.14424351
  H      1.31903030     -1.67334101      4.11693933
 Cl      3.33386354     -3.23254129      7.44057669
 Cl      2.83119232      7.66143120      3.76559822
 Cl      1.17568495      1.80164661      5.78122609
 Cl      5.98634768     12.83277382     -1.47814224
 Cl      3.87920025      0.03714456      1.60511571

