62
Energy =    -96.26011556 au
  N      5.35550938      1.48507287      3.55931743
  C      4.27155834      2.03600061      4.10017710
  N      3.33819256      2.16089884      3.16608364
  C      3.83061466      1.66812684      1.99874520
  C      5.10101775      1.24630133      2.24479278
  C      6.58080427      1.15558862      4.24033336
  C      6.68812037     -0.34983828      4.45601280
  C      2.01129374      2.66609806      3.34849107
  H      4.17170207      2.34659645      5.13241472
  H      3.22817870      1.61130600      1.11669618
  H      5.84922388      0.85038562      1.59060673
  H      7.40772540      1.52018213      3.61640938
  H      6.57994916      1.67570798      5.19911445
  H      7.61276114     -0.57806922      4.97835198
  H      6.68906722     -0.87300296      3.50306198
  H      5.85075392     -0.70729449      5.05218443
  H      1.31177086      1.85198394      3.09723791
  H      1.83473997      3.50563879      2.67622268
  H      1.88460757      2.98558247      4.37910991
  N      3.10251847     -0.26449929      7.82717938
  C      2.97410457      0.70778975      8.72569990
  N      4.16802370      0.99197980      9.23729097
  C      5.07620605      0.13395162      8.69719257
  C      4.41296467     -0.65094983      7.81167026
  C      2.06059610     -0.78148373      6.97387139
  C      2.12373177     -0.09642645      5.61492918
  C      4.38991348      1.96854851     10.25936210
  H      2.08425178      1.27491971      8.89988653
  H      6.11087498      0.15284696      8.97192057
  H      4.76054612     -1.44890301      7.18841985
  H      2.19590145     -1.86200834      6.87700904
  H      1.10480014     -0.59248045      7.46537483
  H      1.31613549     -0.41031182      4.96043547
  H      3.06252479     -0.32580009      5.11615533
  H      2.06234482      0.97876141      5.75236865
  H      4.14740403      2.95814406      9.86836110
  H      5.43173187      1.94417475     10.57059574
  H      3.73777927      1.73364522     11.10327573
  N      7.44072800      4.60744952      6.63806380
  C      8.67738204      4.74712459      6.16561596
  N      8.63716786      4.63144315      4.84330903
  C      7.34755993      4.41600361      4.45958709
  C      6.59357947      4.40291144      5.59189045
  C      7.05529349      4.64946863      8.02790310
  C      7.37084202      6.00925623      8.63761225
  C      9.75081746      4.68848746      3.94166771
  H      9.55339961      4.98928304      6.77299573
  H      7.10474447      4.22793554      3.43220200
  H      5.54540640      4.23856476      5.75552994
  H      5.98799470      4.41772890      8.07065954
  H      7.61178192      3.87613864      8.56475721
  H      7.06103317      6.02545975      9.67911329
  H      6.84556800      6.79815357      8.10341422
  H      8.44303352      6.19485984      8.58736550
  H      9.84582702      5.69095641      3.52088449
  H      9.56471821      3.97850131      3.12873990
  H     10.66468183      4.44035007      4.47571491
 Cl      2.10905458     -0.57650663     10.78352215
 Cl      0.88936579     -0.10737223      2.20694401
 Cl      3.86057389      3.20770404      7.10880894
 Cl     10.92339269      5.86178150      8.06801717
 Cl      8.19280271      2.66108361      1.77308471
