#B3LYP/6-31+G(d) OPT FREQ

62, Energy =    -96.27162641 au

0 1
  N      4.53317327      6.38342951      4.50718225
  C      5.37031088      7.40596853      4.67606027
  N      6.47578244      7.18129336      3.97582892
  C      6.32733113      6.00364995      3.30535166
  C      5.10668423      5.50392920      3.62937280
  C      3.22311262      6.25599195      5.09372769
  C      2.15303577      6.77111928      4.13944939
  C      7.57252896      8.08979649      3.80707670
  H      5.20708138      8.23324682      5.33423980
  H      7.13034617      5.63092502      2.69587756
  H      4.57905769      4.64191192      3.27136705
  H      3.05145993      5.19965257      5.31910820
  H      3.21399388      6.83065924      6.02431164
  H      1.19385377      6.82030025      4.64657498
  H      2.07891174      6.10263294      3.28704050
  H      2.42877814      7.76535484      3.79813324
  H      8.32038270      7.60884223      3.17341225
  H      8.00760142      8.35008963      4.77177725
  H      7.20027266      8.99538602      3.32561723
  N      0.03972475      2.32031574      2.58436393
  C     -0.21809448      3.34109195      1.76778394
  N     -0.37773707      4.44854290      2.49163471
  C     -0.31006418      4.10430075      3.81101433
  C     -0.04087630      2.77806036      3.87038023
  C      0.31389648      0.96960250      2.17393567
  C      1.81223866      0.68287949      2.21662499
  C     -0.75439706      5.71393979      1.93820886
  H     -0.09750317      3.32359898      0.70528456
  H     -0.44785519      4.82120452      4.59353815
  H      0.09904689      2.13400333      4.71366962
  H     -0.23321202      0.28778603      2.83162614
  H     -0.07367632      0.85626441      1.16026178
  H      2.03201081     -0.26145137      1.72670211
  H      2.16593188      0.63775322      3.24407033
  H      2.34913638      1.48099908      1.71030348
  H      0.00269432      6.04342866      1.22592717
  H     -0.85040465      6.45024003      2.73234601
  H     -1.70908202      5.58952733      1.42083617
  N      6.28826602      5.77651843      0.13375426
  C      4.96656601      5.78635523      0.28323289
  N      4.57075150      7.02744822      0.53619769
  C      5.66518530      7.83546182      0.54645411
  C      6.74642842      7.04977627      0.28907821
  C      7.11886997      4.63219215     -0.13683190
  C      7.42233474      4.52028893     -1.62718750
  C      3.22118267      7.43535109      0.78998988
  H      4.31102381      4.93143354      0.31526570
  H      5.58687979      8.87576323      0.78540916
  H      7.79659195      7.26235213      0.28748706
  H      8.04801062      4.77216579      0.43167001
  H      6.59800486      3.74083896      0.21623573
  H      8.04481853      3.64866639     -1.80569911
  H      7.95884434      5.40178594     -1.96955719
  H      6.50379542      4.41920531     -2.20372139
  H      2.78289019      7.88863923     -0.10057264
  H      3.23446616      8.16787280      1.59974542
  H      2.64967117      6.55443343      1.07645936
 Cl      2.64794976      4.10004070      1.65887526
 Cl      9.36443478      5.98025946      1.83772476
 Cl     24.62752598    -27.43917689      2.90305565
 Cl     -2.61880969      2.92216504      1.22405612
 Cl      4.39046661      9.43941881      3.19560579

