62
Energy =    -96.29183353 au
  N      4.94459231      8.56133142      8.48757961
  C      4.50913365      9.68468601      7.92207815
  N      4.61612221      9.57965578      6.60270372
  C      5.14958753      8.35915666      6.31764592
  C      5.35299289      7.71632576      7.50091813
  C      4.87033103      8.32985533      9.91323706
  C      5.47533287      7.00486745     10.33563160
  C      4.20242386     10.55824143      5.63965730
  H      4.03022902     10.48097093      8.46176912
  H      5.29864165      8.03360512      5.30945367
  H      5.68736493      6.71346821      7.68336717
  H      5.38411748      9.15859107     10.41364933
  H      3.80982164      8.40373819     10.18390024
  H      5.31253577      6.86021798     11.40046701
  H      6.54747069      6.99239696     10.14778054
  H      5.02713035      6.16998441      9.80217630
  H      3.72238103     10.04138472      4.79912913
  H      5.06186781     11.11793878      5.26539063
  H      3.49464185     11.24153817      6.10297660
  N      1.44243631      6.98551037      8.65472048
  C      0.62995985      7.92152526      8.18640183
  N      1.02832497      8.28010473      6.97597188
  C      2.12979788      7.54741235      6.65653468
  C      2.39025416      6.72788670      7.70761503
  C      1.33886153      6.33333238      9.93313745
  C      1.02928534      4.85280739      9.74677037
  C      0.43473417      9.28246807      6.14112983
  H     -0.21708932      8.32233984      8.70371644
  H      2.61811813      7.67620040      5.71013759
  H      3.16318484      5.99468036      7.85083621
  H      2.28420041      6.46134414     10.46908460
  H      0.54539700      6.83072262     10.49424784
  H      0.76849541      4.39966691     10.69942611
  H      1.89823798      4.34368173      9.33957824
  H      0.19264375      4.74930040      9.05905728
  H      0.99299079      9.32853803      5.20700088
  H      0.47545530     10.24809097      6.64747564
  H     -0.60529106      9.02521066      5.93804169
  N      2.19596235      3.86710999      5.91456704
  C      1.06704734      4.46656315      5.54877299
  N      1.34483162      5.38325942      4.63064153
  C      2.68419476      5.36552584      4.39377684
  C      3.22095235      4.41230921      5.20263105
  C      2.33109215      2.80459469      6.87630228
  C      2.50710794      1.45898982      6.18013501
  C      0.39204208      6.27905333      4.04228543
  H      0.09739843      4.36002567      6.00780503
  H      3.14013757      6.06320871      3.71893183
  H      4.23722808      4.12523697      5.37384733
  H      3.21030134      3.03555738      7.49038147
  H      1.43655022      2.79663142      7.50037087
  H      2.62242875      0.67634176      6.92443860
  H      3.39488302      1.47051211      5.55242857
  H      1.64162076      1.22849488      5.56063216
  H     -0.07699030      5.82154385      3.16959814
  H      0.91144325      7.18754272      3.73676780
  H     -0.37252556      6.49670745      4.78934262
 Cl     -1.21211835      5.89393021      7.04424890
 Cl      4.93030236      4.42540167      8.08254676
 Cl     48.34035686    -11.05580867    -39.12881347
 Cl      2.01513563     10.01942301      9.52525244
 Cl      2.88614067      8.54002798      3.41364770
