#B3LYP/6-31+G(d) OPT FREQ

62, Energy =    -96.26773362 au

0 1
  N      7.90562375      6.14969778      6.70817355
  C      6.63660611      6.49474112      6.53379155
  N      6.39412770      6.61612767      5.23734565
  C      7.54408865      6.35390775      4.55580766
  C      8.49348307      6.06084949      5.47964685
  C      8.53156527      5.92297166      7.98202828
  C      8.36944345      4.46694955      8.40888879
  C      5.12953073      6.92499194      4.63490066
  H      5.92320319      6.64288559      7.31607563
  H      7.56823689      6.39874635      3.48385686
  H      9.52767167      5.81088554      5.36270443
  H      9.58755369      6.19489835      7.89964668
  H      8.05678928      6.59621554      8.69913554
  H      8.70093587      4.33477798      9.43458679
  H      8.94941931      3.81111291      7.76271988
  H      7.32413545      4.17698281      8.32521737
  H      5.26347990      6.96574001      3.55443544
  H      4.76466803      7.88033293      5.01184192
  H      4.41146186      6.14348853      4.89173109
  N      5.45743858      1.90107614      3.55778252
  C      5.44792355      1.44722871      4.80580458
  N      5.30434983      0.12613099      4.78368520
  C      5.22697529     -0.28291226      3.48879532
  C      5.32377990      0.83360051      2.71690345
  C      5.60803528      3.28926584      3.18207216
  C      6.92830707      3.53486229      2.46736725
  C      5.23166095     -0.75483377      5.91523415
  H      5.49788340      2.09758210      5.67379833
  H      5.10824328     -1.33312904      3.26233920
  H      5.29880783      0.94327898      1.65248560
  H      4.77628945      3.56757418      2.52948985
  H      5.55423290      3.87641641      4.10120825
  H      6.93929333      4.55179352      2.08266040
  H      7.05149137      2.84978193      1.63052000
  H      7.76355499      3.40992079      3.15179534
  H      5.09878710     -1.77492016      5.53343028
  H      4.38989312     -0.48020102      6.55057188
  H      6.14866431     -0.69311600      6.50096139
  N      9.89467504      9.28493492      2.08837989
  C      8.64532651      9.08350746      2.50179839
  N      8.39012187      9.90248232      3.51441974
  C      9.50988783     10.64656968      3.75039074
  C     10.45760809     10.26190963      2.85206319
  C     10.54251923      8.59327369      1.00235487
  C     10.89042143      9.55859148     -0.12416388
  C      7.14677791      9.98868124      4.22262128
  H      7.94456037      8.36654767      2.08444436
  H      9.55079869     11.37064394      4.53728906
  H     11.45790454     10.63264340      2.65049875
  H     11.46228111      8.14140994      1.38154118
  H      9.86108542      7.80916613      0.66287836
  H     11.32739433      9.00913363     -0.95323877
  H     11.61729847     10.28883234      0.23297866
  H      9.99828397     10.07328902     -0.47365450
  H      6.41104557      9.37762238      3.70734925
  H      6.80823499     11.02456063      4.25746891
  H      7.25920372      9.63158096      5.25963420
 Cl      4.88149797     -3.44562879      4.01729517
 Cl      7.24041776      9.06743622      7.37664833
 Cl      6.56034023      6.89272522      1.37568275
 Cl     13.24475671     11.36293766      1.63126333
 Cl      5.28869046      3.96775659      6.68372631

