#B3LYP/6-31+G(d) OPT FREQ

62, Energy =    -96.26825297 au

0 1
  N      2.75667706      7.50374600      3.95114082
  C      1.50249274      7.27276248      3.54491528
  N      1.34017210      5.95335395      3.40497564
  C      2.55481715      5.34931707      3.57858853
  C      3.43656112      6.31385095      3.93072766
  C      3.30347885      8.80009844      4.24439223
  C      3.13069652      9.14312921      5.72063039
  C      0.15981217      5.29955420      2.92537840
  H      0.70276101      7.98188304      3.62318906
  H      2.67132661      4.29061895      3.46772426
  H      4.48122817      6.25685940      4.15745368
  H      4.36115543      8.79882461      3.96419009
  H      2.77835817      9.52371531      3.61755169
  H      3.49065055     10.14993860      5.91473661
  H      3.68647034      8.44291161      6.34258277
  H      2.07766793      9.08702516      5.99016041
  H     -0.71940062      5.80980039      3.31378993
  H      0.17201287      4.26345722      3.26162640
  H      0.13630241      5.33881592      1.83369907
  N     -1.69725043      3.71206115      7.81256930
  C     -0.66159089      2.94222976      7.50026011
  N     -0.94384815      1.68345934      7.81009587
  C     -2.17515338      1.65450093      8.39271732
  C     -2.64580116      2.93043508      8.39268501
  C     -1.74918985      5.13763335      7.60132180
  C     -1.74468206      5.46962246      6.11735427
  C     -0.08344122      0.56354345      7.56046192
  H      0.22999571      3.24388937      6.97772337
  H     -2.61578457      0.75040320      8.75990300
  H     -3.56706597      3.32948926      8.76470227
  H     -2.64505126      5.52547881      8.08897057
  H     -0.87249875      5.57225461      8.08231316
  H     -1.55203015      6.53317393      5.99620888
  H     -2.69685866      5.21901173      5.65445155
  H     -0.95191767      4.91909502      5.61966288
  H      0.53143553      0.80319700      6.68904523
  H     -0.68215009     -0.32413610      7.36352070
  H      0.56542230      0.38416885      8.41807667
  N      2.95534041      4.54126282      8.04615179
  C      2.51974742      5.36825136      8.99164043
  N      1.72343162      6.27673197      8.44150762
  C      1.60076011      5.99227137      7.11396878
  C      2.36948331      4.90043498      6.86531556
  C      3.82219580      3.40489996      8.23209761
  C      3.01596380      2.11538074      8.16367190
  C      1.02145850      7.32757145      9.12167212
  H      2.78824778      5.32305283     10.02702448
  H      0.99008362      6.61504147      6.48259649
  H      2.49257499      4.32184376      5.97196695
  H      4.58541034      3.42283442      7.44794747
  H      4.30540727      3.50580624      9.20758520
  H      3.64822541      1.26078997      8.38777176
  H      2.59247527      2.00041066      7.16909710
  H      2.20747675      2.17544720      8.88749241
  H      0.33419477      6.89225766      9.84856559
  H      0.46752803      7.90069276      8.37093291
  H      1.72238584      7.98129751      9.64143782
 Cl      1.70822636      7.97321968      1.20466953
 Cl      1.27849686      2.35196794      5.03793979
 Cl     26.32898489     -7.05030777    -31.56867956
 Cl      0.47118331      3.75483484      9.95008620
 Cl     -0.26931383      8.54682187      6.28391903

