#B3LYP/6-31+G(d) OPT FREQ

62, Energy =    -96.28206280 au

0 1
  N      5.53117947      8.60245822      7.87588924
  C      5.30752814      9.21896189      6.71587337
  N      5.46598972      8.35221812      5.72391339
  C      5.78730511      7.14292749      6.25531846
  C      5.83074875      7.29883452      7.60778642
  C      5.38864917      9.20835273      9.17853114
  C      3.91613472      9.36873968      9.54356873
  C      5.26647234      8.62617385      4.33143889
  H      5.02383469     10.24492650      6.60141645
  H      5.92371665      6.28707364      5.61830484
  H      6.02153693      6.59426921      8.39133063
  H      5.87978824      8.56287660      9.90865211
  H      5.89175821     10.18113246      9.15651722
  H      3.81487931     10.05254573     10.38166247
  H      3.50753047      8.40324564      9.83416971
  H      3.35822680      9.75735996      8.69613171
  H      4.27438934      9.06038394      4.20660867
  H      5.34188943      7.68306627      3.78571003
  H      6.01754923      9.32810059      3.96766815
  N      0.20072512      6.38494108      9.94138553
  C      1.15040355      5.83967880      9.19251147
  N      1.58738187      6.73331977      8.32176471
  C      0.91215176      7.89478323      8.52195014
  C      0.03823886      7.67851518      9.53862983
  C     -0.44503524      5.74408133     11.05488151
  C      0.34370330      6.01508845     12.33394224
  C      2.70590107      6.54510393      7.45198862
  H      1.49319159      4.82868011      9.26408188
  H      1.11716102      8.76529722      7.93136498
  H     -0.68255602      8.32776722      9.99090332
  H     -1.46932293      6.12006770     11.12925653
  H     -0.48069583      4.67223499     10.84784538
  H     -0.00908637      5.38063094     13.14270825
  H      0.24535695      7.05703088     12.63139316
  H      1.39831949      5.81434769     12.15288796
  H      3.58403862      6.39305789      8.08247134
  H      2.82527620      7.43031693      6.83033345
  H      2.56475436      5.66012721      6.83681196
  N      1.97630521      5.47601847      4.22780961
  C      0.89003713      5.86142791      4.89261672
  N      0.69366058      7.15540703      4.67500007
  C      1.67002856      7.60775088      3.84133077
  C      2.47704882      6.54978562      3.55742558
  C      2.54795080      4.15337832      4.19124115
  C      1.90629110      3.31949564      3.08734327
  C     -0.33269319      7.94919931      5.28458601
  H      0.27676946      5.28034917      5.57410313
  H      1.73255713      8.63558546      3.55163320
  H      3.39178999      6.46657231      3.00232247
  H      3.62178929      4.27508633      4.00560276
  H      2.38926104      3.67708783      5.16073964
  H      2.35249429      2.32944277      3.07249999
  H      2.07211121      3.78684259      2.11954267
  H      0.83533671      3.22052156      3.25620573
  H     -1.08078573      8.24182981      4.54637029
  H      0.12833464      8.84408915      5.70337794
  H     -0.80091014      7.35821759      6.07229670
 Cl     -1.01586196      5.15352880      7.30318670
 Cl      5.56900266      5.43017561      3.36398620
 Cl     51.28014852    -12.66238222    -40.96464470
 Cl      3.55446542      6.11935206     10.64339941
 Cl      2.51823954      9.78358518      6.04661120

