62
Energy =    -96.14683256 au
  N      5.44792239      8.58812249      7.43340969
  C      5.19080962      8.05088296      8.63190920
  N      4.57779888      8.97413943      9.37938535
  C      4.41565886     10.11060955      8.63679737
  C      4.96412517      9.86712210      7.40587884
  C      6.06095114      7.88416997      6.30112309
  C      5.10799270      7.79937433      5.12356036
  C      3.99242246      8.74360385     10.69512466
  H      5.37447001      7.03290494      8.92448564
  H      3.91060197     10.97748913      9.02152142
  H      5.01549873     10.48500993      6.52865640
  H      6.97553838      8.41673502      6.04189071
  H      6.33032422      6.89490350      6.66377350
  H      5.59864878      7.26480993      4.31134378
  H      4.82537628      8.78798027      4.76792103
  H      4.20138698      7.27079219      5.40111578
  H      2.91311189      8.68158425     10.58555296
  H      4.27088098      9.56343492     11.35167803
  H      4.36178414      7.80039072     11.08130489
  N      0.93498785      6.28178552      9.15263705
  C      0.58718197      7.56469247      9.30857027
  N      1.04656018      8.25147914      8.25776057
  C      1.67383415      7.38828690      7.40294063
  C      1.60258366      6.14251520      7.96706659
  C      0.57158870      5.18713515     10.05989004
  C     -0.30264838      4.16119070      9.36338334
  C      0.74969837      9.64939759      7.96676363
  H     -0.01949730      7.96687911     10.09964392
  H      2.09054167      7.71261551      6.46713024
  H      1.94308215      5.19032131      7.60466984
  H      1.49785574      4.74525491     10.42604303
  H      0.05298161      5.64352252     10.89982013
  H     -0.55419471      3.37357252     10.07231230
  H      0.20851377      3.71344898      8.51371654
  H     -1.21754224      4.61953560      9.00108620
  H      0.01115425      9.68587051      7.17053127
  H      1.66792097     10.14868433      7.66960293
  H      0.33265792     10.11010040      8.85504534
  N      1.52207163      5.56640580      4.27013911
  C      0.32548805      6.01414516      4.66870096
  N      0.18990576      7.27450957      4.24443186
  C      1.30659401      7.62823990      3.53932703
  C      2.14881869      6.54855865      3.55374423
  C      2.03468727      4.20807333      4.48364431
  C      2.26448202      3.49219028      3.16581280
  C     -1.02845334      8.07076035      4.33699514
  H     -0.43003941      5.44225104      5.17636889
  H      1.40478154      8.58922397      3.06874856
  H      3.10820625      6.40393648      3.09265448
  H      2.95437100      4.29316704      5.06177724
  H      1.29403434      3.69192455      5.09006742
  H      2.63614072      2.48904824      3.37019989
  H      2.99440674      4.01442808      2.55085697
  H      1.33983714      3.42114557      2.60158366
  H     -1.49275279      8.10483583      3.35514558
  H     -0.77024334      9.06872432      4.68068102
  H     -1.70809608      7.58979483      5.03123726
 Cl     -1.21475580      4.86291351      6.92810898
 Cl      5.02532648      5.19480586      5.16948898
 Cl     54.71053842    -14.42445966    -45.87870890
 Cl      2.61470632      6.40864653     10.86358340
 Cl      1.40760227     10.62092763      5.53492940
