62
Energy =    -96.26576994 au
  N      7.99921850      6.60841632      4.56359280
  C      6.83108114      5.97474913      4.63627432
  N      6.97661244      4.88349899      5.37897981
  C      8.27664221      4.81964590      5.78811724
  C      8.91936932      5.90638752      5.27625215
  C      8.25160270      7.85874035      3.88903946
  C      7.50074368      8.99079898      4.58008844
  C      5.93868211      3.93813505      5.66893849
  H      5.89480453      6.29821302      4.20313145
  H      8.63148750      4.02703523      6.41359916
  H      9.94685198      6.24165579      5.30410898
  H      9.33901437      8.01970059      3.91762473
  H      7.92114329      7.77091815      2.85062826
  H      7.71739889      9.93099099      4.08067823
  H      7.81845603      9.06899770      5.61763176
  H      6.42680256      8.81316267      4.54514096
  H      5.81637989      3.80735278      6.75398006
  H      6.17957963      2.96849751      5.23122889
  H      5.00861646      4.30854536      5.24542877
  N      2.29618258      3.71227169      6.11548524
  C      2.30546234      4.03938807      4.82755606
  N      1.89423248      2.99649542      4.11203600
  C      1.61233846      1.97313787      4.96155482
  C      1.86439599      2.42381463      6.22165612
  C      2.65068988      4.59448264      7.20003666
  C      1.44037060      4.90748711      8.07162450
  C      1.77435526      2.91384715      2.68406621
  H      2.62675221      4.99680891      4.44288377
  H      1.20750416      1.05112460      4.57269193
  H      1.79321022      1.92619442      7.16612844
  H      3.44621392      4.13002807      7.80042504
  H      3.03754185      5.51031513      6.75243768
  H      1.73688386      5.58228895      8.86916901
  H      1.04078253      4.00173537      8.52075400
  H      0.65575547      5.38426130      7.48645879
  H      1.33047877      3.82590929      2.29152560
  H      1.14425680      2.04402481      2.45465061
  H      2.75613647      2.77387448      2.23200743
  N      4.11657104      8.38527514      7.70662851
  C      3.99457635      8.43861876      9.02987202
  N      4.57500582      7.36628851      9.55315288
  C      5.09196266      6.60681899      8.54682732
  C      4.80457874      7.25306853      7.38446092
  C      3.62644946      9.35618764      6.76104918
  C      4.52485932     10.58839580      6.73738725
  C      4.62563536      7.07575208     10.95726190
  H      3.50237025      9.19552314      9.64130085
  H      5.53536817      5.64073057      8.71939476
  H      4.98390243      6.98726546      6.36218362
  H      3.59813366      8.87067616      5.78188204
  H      2.61262539      9.64248277      7.05168374
  H      4.14824234     11.30419955      6.01296737
  H      5.53966104     10.31487536      6.45937015
  H      4.54155142     11.05622446      7.71899671
  H      5.65849765      7.09593427     11.30629843
  H      4.21538071      6.08313965     11.14241682
  H      4.04489521      7.83945172     11.48018812
 Cl      5.31840896      3.36506428      8.85827270
 Cl      2.87295876     10.01004221     11.46767794
 Cl      3.75709955      6.91606059      4.19239533
 Cl     11.51918165      7.55722713      4.32682010
 Cl      0.06431716      0.12058688      2.81210604
