62
Energy =    -96.28060871 au
  N      7.56457236      5.70326020      3.43078789
  C      7.92068038      5.47115238      4.68719142
  N      9.22217232      5.20728299      4.72891393
  C      9.72751684      5.33386251      3.47117652
  C      8.68802051      5.64299048      2.65296905
  C      6.24666319      6.12174041      3.02096498
  C      6.23763744      7.62196676      2.74719429
  C     10.00504326      5.00843113      5.91234561
  H      7.21181936      5.44834540      5.49998513
  H     10.78268265      5.24085962      3.29297857
  H      8.66083620      5.81847165      1.59702862
  H      5.95078115      5.55499799      2.13258236
  H      5.56995703      5.89120579      3.84884913
  H      5.21741168      7.97352767      2.62587749
  H      6.80587002      7.86280695      1.84996272
  H      6.68939497      8.13229741      3.59437845
  H     11.05904729      5.01296124      5.62589254
  H      9.74547880      4.06448541      6.39323172
  H      9.81126941      5.83774977      6.59376054
  N      7.18231524      9.05376293      7.98149612
  C      6.78097232      7.82144688      7.68764011
  N      7.29316372      6.97847974      8.57740703
  C      8.06519689      7.69703176      9.44890081
  C      7.99390512      9.00063283      9.07047990
  C      6.89261963     10.25461614      7.24120827
  C      5.42775339     10.64589395      7.38277629
  C      7.07830722      5.55977326      8.62499921
  H      6.13780036      7.51460293      6.88136741
  H      8.59064900      7.23209531     10.25816364
  H      8.49089701      9.88881674      9.43158305
  H      7.54930812     11.03567941      7.63368437
  H      7.14611734     10.06303213      6.19561746
  H      5.23721710     11.55267648      6.81665196
  H      5.18521262     10.83341186      8.42607063
  H      4.78065822      9.85618789      7.00709626
  H      6.35905573      5.29109686      7.84302443
  H      6.67788231      5.27707392      9.59967411
  H      8.01669791      5.02919097      8.45794067
  N     11.23872288      8.91956271      6.81966398
  C     11.55338162      8.30033766      5.68830436
  N     11.21947910      9.07119654      4.66464325
  C     10.65598019     10.21000009      5.15699279
  C     10.66469071     10.11682398      6.51336599
  C     11.41382429      8.37872684      8.14478788
  C     12.03305556      9.39871344      9.09051052
  C     11.31924422      8.66933767      3.29187058
  H     12.01516593      7.32980932      5.56411002
  H     10.27113874     10.98039890      4.52178104
  H     10.28184521     10.78413078      7.26963636
  H     10.43131998      8.08163132      8.52454478
  H     12.04420063      7.48975639      8.05133249
  H     12.19990980      8.93960265     10.06102054
  H     11.36412804     10.24738159      9.22200363
  H     12.98546088      9.75234920      8.70239238
  H     11.77284050      9.45973377      2.69363521
  H     10.32064358      8.44789238      2.91097614
  H     11.92379616      7.76188020      3.24867548
 Cl      4.97444307      5.36570201      6.12935723
 Cl    -12.65015342      1.08271438    -23.40114420
 Cl      9.51005283     11.86463298      9.11664460
 Cl      8.49102329      8.00929025      5.46373073
 Cl     12.94408605      5.71675637      4.33616546
