62
Energy =    -96.26617517 au
  N      3.23894426      3.19107214      6.64972199
  C      2.58934084      2.79442504      5.56240709
  N      3.17319677      3.31280360      4.49260349
  C      4.21995586      4.07989678      4.91185649
  C      4.26206387      4.00543127      6.26703820
  C      2.89311285      2.81815682      7.99475971
  C      3.42842775      1.42635557      8.32522028
  C      2.77466566      3.04518612      3.14432227
  H      1.75095722      2.13104157      5.54361115
  H      4.83887640      4.61835444      4.22409971
  H      4.93501277      4.45406835      6.97622613
  H      3.31733595      3.56394467      8.66988924
  H      1.80263738      2.84484986      8.06845948
  H      2.91050087      1.01482549      9.18754100
  H      4.49165055      1.47280760      8.54519475
  H      3.28827969      0.76560571      7.47254198
  H      3.40626278      3.60471813      2.45761171
  H      1.73064763      3.33337240      3.01379832
  H      2.88554971      1.97412868      2.95963307
  N      7.88456197      4.43203071      4.47300321
  C      7.43526365      3.80543229      5.55697456
  N      7.11153630      2.56046882      5.23063991
  C      7.36975383      2.38901750      3.90185997
  C      7.85973611      3.56490483      3.42216948
  C      8.34605321      5.79757637      4.42963683
  C      9.83328562      5.85451415      4.10332978
  C      6.58450211      1.57036658      6.12260986
  H      7.29875942      4.26150834      6.53241134
  H      7.16871417      1.46262487      3.40564512
  H      8.24227954      3.84448515      2.44679523
  H      7.79067889      6.32692621      3.65129393
  H      8.12746919      6.24510246      5.40221076
  H     10.17439447      6.88551994      4.13081626
  H     10.00017118      5.45785193      3.10138776
  H     10.40568030      5.27484007      4.82428345
  H      7.29348431      0.74801465      6.23041617
  H      5.64160438      1.16241721      5.72908858
  H      6.41045855      2.03171825      7.09087382
  N      2.09861125      7.43027076      5.62679062
  C      1.92594343      7.13302145      6.90880376
  N      3.11111986      6.92371076      7.46911962
  C      4.07538025      7.15100940      6.53427060
  C      3.44011171      7.46421016      5.37686974
  C      1.04257570      7.72208281      4.69503168
  C      0.69877102      9.20721970      4.72628761
  C      3.35014244      6.66871639      8.85815164
  H      0.97678145      6.98742866      7.37974991
  H      5.11508878      7.03864942      6.76821270
  H      3.83098757      7.70193297      4.40896839
  H      1.36934695      7.40776456      3.69955946
  H      0.18462384      7.11181904      4.98467709
  H     -0.23951660      9.39223117      4.20997762
  H      1.48524706      9.79388614      4.25532625
  H      0.61242433      9.52751834      5.76334590
  H      3.19772645      7.59626055      9.41546686
  H      4.37471481      6.31866301      8.98150029
  H      2.64675766      5.92084451      9.22265967
 Cl      1.52722002      9.53267568      8.07107304
 Cl      9.53391663      4.66881338      0.88007354
 Cl      3.81126988      0.26034098      4.89549532
 Cl      6.63213010      5.31397057      8.27769301
 Cl      0.59685851      4.60932905      5.77545936
