#B3LYP/6-31+G(d) OPT FREQ

62, Energy =    -96.26363890 au

0 1
  N      3.25953096      3.40810826      2.82169141
  C      3.84478307      3.45760111      4.01306226
  N      3.56311934      4.62466370      4.57884007
  C      2.80214299      5.35513199      3.72103532
  C      2.61377581      4.59007411      2.61397329
  C      3.39756198      2.32669442      1.88146435
  C      2.86398642      1.02048413      2.45392606
  C      3.98682475      5.08469360      5.87085128
  H      4.38212215      2.63244607      4.46695394
  H      2.45787102      6.33734230      3.99891127
  H      2.09021280      4.80123982      1.70425046
  H      2.85908833      2.60649320      0.97130628
  H      4.46206977      2.23655276      1.64660408
  H      3.01072165      0.21685339      1.73681001
  H      1.80089227      1.10498438      2.67275768
  H      3.38977921      0.76972264      3.37424077
  H      3.73677410      4.34480570      6.63039927
  H      3.47445143      6.02837849      6.07544321
  H      5.06423117      5.25040543      5.87414398
  N      7.99009797      2.55657106      6.03631909
  C      7.33778934      2.52556932      4.87985740
  N      7.61740902      1.39090897      4.25597864
  C      8.45587328      0.66674723      5.04823092
  C      8.69126201      1.40027833      6.17012092
  C      7.90531940      3.57297455      7.05323232
  C      6.74934429      3.25429555      7.99825679
  C      7.01848632      0.98242073      3.02025298
  H      6.72547212      3.29916644      4.45129670
  H      8.80853406     -0.30396031      4.76673922
  H      9.33052200      1.25278052      7.02630218
  H      8.85271084      3.55676891      7.60614497
  H      7.75904596      4.53927171      6.56449374
  H      6.53087558      4.11153072      8.62900799
  H      7.02126632      2.41461299      8.63198030
  H      5.85898035      2.98726027      7.43264459
  H      6.07513880      0.48056441      3.25143414
  H      7.68435427      0.31091702      2.48153948
  H      6.80852588      1.87580320      2.43107222
  N      5.66087915      8.77794980      5.43706939
  C      4.94410506      8.88152045      4.32163911
  N      5.23911718      7.85920612      3.52464840
  C      6.21679380      7.11542242      4.11777996
  C      6.47637584      7.68537322      5.32003490
  C      5.59754093      9.67225663      6.56016675
  C      4.70280767      9.09627513      7.65299786
  C      4.74755230      7.66364589      2.19383598
  H      4.15142537      9.58118368      4.16202008
  H      6.61599466      6.24096441      3.64080770
  H      7.17476585      7.41738196      6.08650978
  H      6.61463667      9.83745606      6.92939289
  H      5.20154048     10.62138564      6.19517946
  H      4.54920181      9.82834914      8.44143070
  H      5.14920325      8.20200464      8.08302355
  H      3.74060996      8.82632042      7.22200717
  H      5.04545475      6.67268015      1.85486102
  H      5.17585464      8.42878956      1.54225758
  H      3.66186939      7.75190788      2.18455705
 Cl      2.19106076      7.99027914      5.52328904
 Cl     10.65632732      2.31468194      8.57936406
 Cl      6.25441789     10.80117416      3.16724638
 Cl      6.15266884      4.21891109      2.27903036
 Cl      4.73989162      0.68588540      5.39036885

