#B3LYP/6-31+G(d) OPT FREQ

62, Energy =    -96.27426434 au

0 1
  N      2.38625047      7.00075506      1.55716051
  C      2.83941608      7.04162099      0.30828641
  N      3.35663749      8.24414123      0.07915648
  C      3.23814322      8.98594922      1.21694688
  C      2.63065174      8.20041488      2.14862592
  C      1.76480301      5.86756143      2.19432001
  C      2.80780339      5.02338446      2.91939320
  C      3.92923670      8.69627333     -1.15566493
  H      2.68121974      6.26459281     -0.43802030
  H      3.56717026     10.00356905      1.25470481
  H      2.28779554      8.40364453      3.14443866
  H      1.02906586      6.26049641      2.90497128
  H      1.27052702      5.27896799      1.42002397
  H      2.32205572      4.17802529      3.39763732
  H      3.30617626      5.61311705      3.68532964
  H      3.55155979      4.64847779      2.21880036
  H      3.50486122      9.67725836     -1.41264705
  H      3.70687645      7.97176291     -1.93451332
  H      5.01018499      8.80118356     -1.05370309
  N     -0.07751097      9.34494768      0.74263683
  C      0.37996341      9.52097443     -0.49333096
  N      0.23232585      8.38709597     -1.16815174
  C     -0.34352944      7.46524896     -0.34672259
  C     -0.54309001      8.07049469      0.85641785
  C     -0.10186515     10.33753777      1.78633460
  C     -1.38920590     11.15249862      1.72123728
  C      0.63485591      8.16095884     -2.52560468
  H      0.90513390     10.40121696     -0.86306434
  H     -0.50417895      6.45776711     -0.67149692
  H     -0.90405478      7.70504726      1.79856908
  H     -0.03335749      9.80236147      2.74129169
  H      0.76326020     10.98942964      1.65386652
  H     -1.39848719     11.88164173      2.52588954
  H     -2.25283195     10.50143936      1.83514758
  H     -1.46121953     11.67764588      0.77033276
  H     -0.23392886      8.17773589     -3.18554162
  H      1.10240864      7.17091633     -2.58378160
  H      1.32960232      8.94268606     -2.82263459
  N     14.09104724      2.76980874      7.72612308
  C     13.58613518      3.90295006      8.20231732
  N     12.26790411      3.88455221      8.04398754
  C     11.92403971      2.70541746      7.44551057
  C     13.07359385      2.00447708      7.24666282
  C     15.47777605      2.36961789      7.73642029
  C     16.01407539      2.31894439      9.16167624
  C     11.39062645      4.94361771      8.45835771
  H     14.09690876      4.74170876      8.67143448
  H     10.90931400      2.45896717      7.20998246
  H     13.28588680      1.03054408      6.82470892
  H     15.52046746      1.37745609      7.26597544
  H     16.05630845      3.08447450      7.14488668
  H     17.06237570      2.03369259      9.14248564
  H     15.46736300      1.57819073      9.74080338
  H     15.92116618      3.28820542      9.64703062
  H     12.00980379      5.72292167      8.91928969
  H     10.66889199      4.57065971      9.18657645
  H     10.85314525      5.35179826      7.60098712
 Cl     13.99514406      6.57946241      9.74158873
 Cl      2.44957140     11.63190106     -1.53608498
 Cl      1.63785901      5.09587744     -1.84164321
 Cl     -0.02545360      7.95756757      4.10842871
 Cl     14.74862939     -0.57254393      6.36245416

