#B3LYP/6-31+G(d) OPT FREQ

62, Energy =    -96.28348863 au

0 1
  N      5.19113178      9.15573022      7.64203963
  C      4.44845085      8.72350515      8.65360742
  N      3.95884026      9.76292191      9.31447458
  C      4.37822234     10.89826778      8.69576868
  C      5.15444638     10.51801960      7.64632988
  C      5.80259850      8.33476736      6.62203628
  C      5.14248235      8.58448019      5.27225536
  C      3.02603942      9.66101921     10.39807658
  H      4.27149237      7.70189956      8.97058374
  H      4.08315770     11.87417577      9.02197229
  H      5.65534375     11.10519548      6.90509991
  H      6.87401649      8.55330959      6.58043177
  H      5.66809368      7.29112447      6.90609212
  H      5.32778792      7.72887479      4.62867657
  H      5.52206862      9.48573710      4.79754633
  H      4.06942299      8.68372030      5.41248145
  H      2.03045834      9.91354423     10.02992493
  H      3.30398519     10.33625965     11.20654253
  H      3.02977663      8.62352511     10.74185041
  N      0.85997105      6.24635718      8.66295456
  C      1.99847064      6.35697065      7.99053134
  N      2.50328537      5.14818798      7.77287390
  C      1.66200559      4.24114204      8.34319543
  C      0.63026970      4.92956709      8.89942472
  C      0.10766472      7.37127389      9.16420999
  C     -1.38506625      7.08111971      9.23218001
  C      3.81191691      4.85830460      7.25924733
  H      2.39699358      7.29424910      7.64406904
  H      1.85567572      3.18877147      8.32060904
  H     -0.23771111      4.57420691      9.41143541
  H      0.50199285      7.61135585     10.15852543
  H      0.32650853      8.21354849      8.50402052
  H     -1.94523568      8.01183228      9.22651026
  H     -1.63875394      6.53428375     10.13756634
  H     -1.68981176      6.48135234      8.37664233
  H      3.88858704      3.79800361      7.02942905
  H      4.54665944      5.10149439      8.03058499
  H      4.03758035      5.42583495      6.35451079
  N      1.72520661      5.45062071      4.49775093
  C      0.56568013      5.79150799      5.05201900
  N      0.45200070      7.11286651      5.02464639
  C      1.56398099      7.63184025      4.43533952
  C      2.36529818      6.58485195      4.09940484
  C      2.21603217      4.11329119      4.28184522
  C      1.68756100      3.55716251      2.96368090
  C     -0.64375339      7.85873689      5.57030202
  H     -0.17349840      5.14186570      5.51488005
  H      1.70902210      8.68706766      4.33724138
  H      3.35468936      6.53380641      3.68550942
  H      3.31094691      4.17379756      4.25905615
  H      1.88337283      3.48622194      5.11101270
  H      2.07089373      2.55243076      2.81165663
  H      2.01620746      4.18015176      2.13542137
  H      0.59958822      3.52138461      2.97289266
  H     -1.21348090      8.33591601      4.77143835
  H     -0.24168023      8.62922262      6.22991775
  H     -1.28581641      7.17113634      6.11893850
 Cl     -1.78675989      4.66922860      6.77289178
 Cl      5.33816275      5.32153442      4.27388120
 Cl     54.22420663    -14.19488211    -45.16218583
 Cl      3.55397878      6.31979765     10.47926246
 Cl      1.94237265      9.54652786      7.02802710

