#B3LYP/6-31+G(d) OPT FREQ

62, Energy =    -96.27226539 au

0 1
  N      7.61589237      2.53585904      7.73293583
  C      8.13852123      3.01759438      8.86293779
  N      9.06177099      3.92738917      8.55857753
  C      9.18875090      3.96370969      7.19730951
  C      8.28321390      3.09561861      6.68207677
  C      6.62556448      1.49515600      7.63556825
  C      5.31485955      1.90239649      8.29850454
  C      9.85760498      4.68041276      9.48315941
  H      7.78126822      2.81035933      9.84886122
  H      9.89455815      4.61223735      6.72283061
  H      8.04467929      2.82716120      5.67085915
  H      6.47686201      1.29363468      6.57287221
  H      7.03690226      0.60427732      8.12181929
  H      4.57613311      1.11936461      8.15280267
  H      4.92557303      2.82220602      7.86945363
  H      5.45252403      2.04620041      9.36724048
  H      9.95091257      5.71279401      9.12846563
  H     10.84768330      4.23067216      9.57141072
  H      9.38239808      4.66710251     10.46139057
  N      3.06346107      0.66704460      4.68295446
  C      1.78764190      0.54852428      5.03845808
  N      1.47396969      1.56195744      5.83639754
  C      2.57482614      2.34913936      6.00477872
  C      3.57447098      1.78216513      5.27721007
  C      3.79762019     -0.20291383      3.79650371
  C      3.08826905     -0.33552974      2.45459459
  C      0.17294855      1.76107791      6.40770441
  H      1.05940945     -0.19678194      4.72824503
  H      2.56865855      3.23999636      6.61286720
  H      4.59722000      2.06567184      5.11472788
  H      4.79147663      0.23742572      3.66998429
  H      3.89847415     -1.18681343      4.26496471
  H      3.65362946     -0.99973619      1.80655796
  H      3.01439179      0.63714872      1.97417438
  H      2.08696645     -0.73863546      2.58595689
  H     -0.51158586      1.04731038      5.94359875
  H     -0.15852410      2.78252454      6.22478736
  H      0.20601094      1.59515691      7.48531473
  N      6.52719903      6.38262180      7.17904523
  C      5.53676801      5.76649116      6.53773774
  N      5.93329518      5.49458012      5.30093183
  C      7.21132164      5.94517825      5.15060706
  C      7.58437974      6.50542567      6.33291281
  C      6.50183095      6.87574587      8.53626425
  C      5.90730768      5.84928739      9.48927489
  C      5.15460501      4.82619766      4.30022046
  H      4.55043172      5.53825873      6.94036389
  H      7.75259275      5.81568376      4.23712583
  H      8.49665330      6.97567578      6.66519694
  H      7.53418806      7.13276235      8.79814215
  H      5.90005892      7.79029499      8.56167181
  H      5.94243949      6.23589156     10.50400993
  H      6.47294898      4.92233193      9.44921761
  H      4.87151750      5.63709340      9.23371193
  H      5.61921696      3.86169372      4.05085677
  H      5.10442753      5.43547683      3.39769403
  H      4.15364402      4.65652944      4.68871422
 Cl      2.65189379      5.18501477      7.74647079
 Cl      9.80370336      7.84944713      8.28283661
 Cl      6.61074290      1.88045365      3.89646879
 Cl     -0.91988169     -0.91538515      4.44693731
 Cl      9.51441277      0.99684504      9.65775076

