#B3LYP/6-31+G(d) OPT FREQ

62, Energy =    -96.26714523 au

0 1
  N      7.78219405      2.38572861      9.90756900
  C      7.15734347      1.95462293      8.81406092
  N      7.03600787      0.63448246      8.87887771
  C      7.59694534      0.21212706     10.04740590
  C      8.06486606      1.31465747     10.69569590
  C      8.07310299      3.75721779     10.24576553
  C      6.78901888      4.49999098     10.59651247
  C      6.43241682     -0.19415308      7.87690569
  H      6.77871700      2.55749531      7.99946410
  H      7.59633790     -0.82020294     10.32843414
  H      8.61180653      1.45310653     11.61528696
  H      8.76165099      3.73232323     11.10184694
  H      8.55971420      4.23380326      9.39108281
  H      7.02442280      5.52483893     10.86791716
  H      6.30189688      4.02257628     11.44326863
  H      6.10511226      4.50739256      9.74942932
  H      5.66449754     -0.83755223      8.32981380
  H      7.18741363     -0.83017962      7.41327323
  H      5.98240446      0.44505114      7.11994167
  N      3.05132239      1.58219938      7.68280129
  C      2.79683972      2.42792312      6.69031747
  N      2.68467634      1.75343762      5.55562725
  C      2.90859672      0.43597342      5.82884406
  C      3.13884401      0.32422040      7.16325173
  C      3.31426362      1.95123481      9.05197653
  C      2.63406075      1.00783148     10.03239497
  C      2.46375161      2.34396168      4.26794408
  H      2.64117787      3.48393132      6.78113385
  H      2.89298926     -0.31570322      5.06707417
  H      3.36841564     -0.54041980      7.76695423
  H      4.39763073      1.93423267      9.20681505
  H      2.96520569      2.97878840      9.18506996
  H      2.81283265      1.35062856     11.04784367
  H      3.03329793     -0.00032482      9.93472926
  H      1.56136295      0.98291789      9.85397717
  H      1.70341087      3.12428935      4.36949550
  H      2.13087176      1.58086792      3.56745918
  H      3.39441940      2.79059425      3.91391151
  N      2.31238104      7.31330276      4.51744848
  C      1.07194571      7.11144070      4.08879721
  N      0.68151338      8.16893094      3.38439623
  C      1.69867240      9.07166849      3.35324947
  C      2.72586806      8.53291309      4.06521766
  C      3.08214086      6.35280835      5.27526450
  C      4.20024789      5.75976443      4.43085890
  C     -0.59158887      8.36799061      2.75030109
  H      0.50353946      6.22384178      4.34127043
  H      1.57514206     10.00108079      2.81497832
  H      3.69889059      8.92168487      4.28226483
  H      3.49688380      6.84548424      6.15803422
  H      2.38115135      5.57307808      5.58700472
  H      4.70966943      4.98748127      5.00314820
  H      4.92728272      6.51872248      4.14804868
  H      3.79084521      5.31205787      3.52806557
  H     -0.55222082      9.33110730      2.22477974
  H     -1.38512743      8.38497702      3.49676236
  H     -0.78988192      7.56387132      2.04245065
 Cl      0.28896009     11.28779499      1.49259512
 Cl      4.08347001     -2.08987117      9.22844903
 Cl      0.26340378      4.44133632      5.59564127
 Cl      5.48043049      3.07424659      6.30190155
 Cl     10.02997004      2.85061845     12.77052985

