#B3LYP/6-31+G(d) OPT FREQ

62, Energy =    -96.26695391 au

0 1
  N      5.63275752      6.83156615      8.34317998
  C      6.23693663      7.25601181      7.23795730
  N      6.35709655      8.57861851      7.28391509
  C      5.86302613      9.00634619      8.48054644
  C      5.40311140      7.91199604      9.13978154
  C      5.25080478      5.47745290      8.66544314
  C      6.00786706      4.46457265      7.82224930
  C      7.05317466      9.34522856      6.29386725
  H      6.50671178      6.67137269      6.38455934
  H      5.87125573     10.03731892      8.76843305
  H      4.91327480      7.82385596     10.08628564
  H      5.47116000      5.31757911      9.72429731
  H      4.16564219      5.40169424      8.52632905
  H      5.84537340      3.46332063      8.21034198
  H      7.07180983      4.68919614      7.85807503
  H      5.68099593      4.48831301      6.78562785
  H      8.12254985      9.14214090      6.38523583
  H      6.85912037     10.40551436      6.43916358
  H      6.71631271      9.02669887      5.30550320
  N      2.35792504      6.24928136      5.19310413
  C      3.11298387      7.22064788      5.69716019
  N      2.60535802      8.39551884      5.34337550
  C      1.46712041      8.17087996      4.62845568
  C      1.30656874      6.82685034      4.53682944
  C      2.54212747      4.84168183      5.43528129
  C      1.69109185      4.39008694      6.61815859
  C      3.17616099      9.65332531      5.71778690
  H      4.04138625      7.08407618      6.20616058
  H      0.86885584      8.96993923      4.24120425
  H      0.54636468      6.24608559      4.05700285
  H      2.28225062      4.29066758      4.52719181
  H      3.59987727      4.68722594      5.65386401
  H      1.98071137      3.39154527      6.93147241
  H      0.63593692      4.38580055      6.35611215
  H      1.83599175      5.08462230      7.44346687
  H      3.27890464      9.67288862      6.80470001
  H      2.53148816     10.46487532      5.38815873
  H      4.16081039      9.74568163      5.25593979
  N      6.66797079      3.38665119      4.11998510
  C      6.88173236      4.69912742      4.20376233
  N      8.16504993      4.91252539      4.47071667
  C      8.78402676      3.70203731      4.56925884
  C      7.84340589      2.74308367      4.34642383
  C      5.41945921      2.72005931      3.83301193
  C      4.73183053      3.32345047      2.61644956
  C      8.76723820      6.20271896      4.64417326
  H      6.16353168      5.49236956      4.05916405
  H      9.82633215      3.61536226      4.79396191
  H      7.88256362      1.66397022      4.28588717
  H      5.66881092      1.66018822      3.66384728
  H      4.77042211      2.78951643      4.71172295
  H      3.80992565      2.78294837      2.42086586
  H      5.37270536      3.22876082      1.74366443
  H      4.49859758      4.37611211      2.76634686
  H      8.10210234      6.95687674      4.22818563
  H      9.73075080      6.23480498      4.13883915
  H      8.91569787      6.40965625      5.71525173
 Cl      8.78548082      6.78283322      7.88350474
 Cl      2.45967653      7.39282453      8.23982535
 Cl    -31.46581489      4.29298082      8.56180187
 Cl      5.30537822      7.52928185      3.93927322
 Cl      6.85840758     -0.20527496      3.62389738

