#B3LYP/6-31+G(d) OPT FREQ

62, Energy =    -96.26585539 au

0 1
  N      5.36812318      8.62344683      8.23736534
  C      5.35857861      7.81506970      9.29023006
  N      4.19279886      7.17414102      9.32230529
  C      3.44514768      7.58738661      8.25854087
  C      4.18400509      8.49984865      7.57286847
  C      6.47075212      9.47430916      7.86139115
  C      6.93949464      9.15207345      6.44806173
  C      3.76225892      6.20459706     10.29021539
  H      6.18691176      7.74856526      9.99267965
  H      2.46047255      7.19224224      8.09561531
  H      3.97324995      9.03939839      6.66226808
  H      6.13681608     10.51508222      7.90746948
  H      7.26205611      9.31540168      8.60078610
  H      7.78433420      9.78515185      6.19105731
  H      6.13890342      9.32862129      5.73210160
  H      7.25129406      8.11217112      6.38119784
  H      2.78413952      5.82871054      9.98216476
  H      3.68547412      6.66195337     11.27693844
  H      4.47387875      5.38092155     10.34204586
  N      1.52079334      2.22434350      6.32312978
  C      1.23583883      1.76332486      5.10335617
  N     -0.06200495      1.91642634      4.87008027
  C     -0.63428956      2.44863372      5.98880474
  C      0.35404817      2.63601516      6.90147726
  C      2.82814456      2.10718322      6.92552522
  C      2.86977137      2.65471806      8.34088777
  C     -0.77119285      1.60580844      3.66507305
  H      1.95681066      1.42019789      4.39221126
  H     -1.67546163      2.69329237      6.01923440
  H      0.31579082      3.07829284      7.87494316
  H      3.07994154      1.03923350      6.90354960
  H      3.54470310      2.64389768      6.29314100
  H      3.89686401      2.65546101      8.69660449
  H      2.27465534      2.03574048      9.00753386
  H      2.48691745      3.67290179      8.37416922
  H     -1.37599053      2.47940743      3.39982926
  H     -1.41986873      0.74329476      3.82361233
  H     -0.06218188      1.37801147      2.87286215
  N      1.34347988      6.58985441      5.47838407
  C      0.20491704      6.00601136      5.83449238
  N     -0.68521294      6.93502168      6.14369226
  C     -0.09137435      8.15307225      5.99723896
  C      1.18453599      7.94138384      5.57956555
  C      2.56152118      5.91214422      5.11087787
  C      3.12680497      6.45635512      3.80639379
  C     -2.01479731      6.65186510      6.59568787
  H     -0.00393844      4.95487674      5.83280467
  H     -0.60827815      9.06829229      6.19978861
  H      1.97229065      8.63623664      5.33921420
  H      3.28871291      6.04900990      5.91783056
  H      2.32567771      4.84818681      5.02393218
  H      4.01096885      5.88977213      3.52666714
  H      3.40839889      7.50154805      3.92054043
  H      2.38905131      6.37208340      3.01187755
  H     -2.59673546      7.57012674      6.63025691
  H     -1.96728209      6.20149670      7.58854380
  H     -2.46370520      5.93914279      5.89718327
 Cl      3.79164640      9.85097654      4.59941891
 Cl      1.63676923     -0.79043463      5.61373407
 Cl      0.82079817      5.54967913      8.58365164
 Cl      8.04640941      8.36751054     10.82519384
 Cl     -1.99599605      4.65948008      3.97587918

