#B3LYP/6-31+G(d) OPT FREQ

62, Energy =    -96.26053558 au

0 1
  N      4.19619527      8.41527541      8.74157385
  C      3.56313644      7.39384608      8.17342475
  N      4.04896209      6.25737055      8.65609902
  C      5.01536609      6.55937743      9.56912767
  C      5.10933334      7.91199207      9.62379958
  C      3.89268871      9.79844067      8.48813460
  C      2.72819746     10.25130080      9.36319910
  C      3.54960064      4.96309671      8.30164965
  H      2.78079347      7.47833501      7.45402049
  H      5.54782318      5.80305500     10.10857782
  H      5.74210137      8.54042479     10.21583227
  H      4.78915421     10.39302717      8.68196224
  H      3.63300193      9.88216789      7.43054973
  H      2.36272900     11.22113852      9.03744342
  H      3.03490666     10.32058028     10.40466442
  H      1.92719697      9.51779015      9.29477106
  H      2.48053437      4.94197765      8.52657656
  H      4.06640262      4.19710062      8.87499284
  H      3.69970221      4.79604992      7.23419408
  N     -0.47173815      8.83485356      6.90620928
  C     -0.28348874      7.56934739      6.53179228
  N      0.89258674      7.47338822      5.91236779
  C      1.42049306      8.72984557      5.79857625
  C      0.57285238      9.57839269      6.42743190
  C     -1.61260419      9.33393589      7.62446293
  C     -1.24196914      9.67800872      9.06406132
  C      1.42971789      6.29172869      5.30405690
  H     -0.86268760      6.73825191      6.87436777
  H      2.35957776      8.89245306      5.30843907
  H      0.62264915     10.63794265      6.56887531
  H     -2.00238292     10.21069082      7.09692543
  H     -2.37425552      8.55320144      7.59888633
  H     -2.13735144      9.86991991      9.64888267
  H     -0.60382572     10.55851778      9.09878085
  H     -0.70001391      8.84421004      9.50489922
  H      1.26396916      5.43842262      5.96017625
  H      2.49808677      6.43472267      5.13811778
  H      0.92058968      6.11229770      4.35405447
  N      7.97995875      7.87609245      6.61756487
  C      8.04470530      8.55049157      7.76676567
  N      7.58203931      9.79122750      7.56714612
  C      7.32538711      9.93080966      6.22612081
  C      7.56016491      8.73391595      5.64173720
  C      8.38810535      6.50699782      6.44175727
  C      7.34886381      5.55131319      7.01737221
  C      7.72654940     10.85097457      8.52223414
  H      8.20389959      8.10733719      8.72670918
  H      6.98035047     10.85271636      5.80742222
  H      7.43607426      8.42135708      4.62658047
  H      8.50323073      6.33009132      5.37070657
  H      9.35907148      6.38423100      6.93198202
  H      7.59546103      4.52640989      6.75528969
  H      6.37364804      5.80431392      6.60642902
  H      7.30633535      5.64043956      8.09990641
  H      7.40389470     11.79021202      8.08011065
  H      8.78452815     10.91089653      8.79589230
  H      7.14184493     10.64806554      9.42012299
 Cl     10.45581156      9.05235678      8.00965467
 Cl     17.19350056    -13.62354225     33.60094815
 Cl     -1.85074797      7.48044806      4.58981615
 Cl      1.14614159      7.11331812      9.37934486
 Cl      4.77678638      7.51599068      5.77229500

