#B3LYP/6-31+G(d) OPT FREQ

62, Energy =    -96.26827279 au

0 1
  N      3.55357225      3.81657502      9.21816928
  C      3.22599521      4.50260472      8.12401989
  N      3.89878072      4.00936568      7.09123205
  C      4.67982620      2.98683592      7.53795463
  C      4.46215158      2.86463767      8.87724197
  C      3.03136121      4.02038650     10.54836768
  C      1.51070265      3.93530713     10.55350134
  C      3.79794288      4.44794781      5.72914131
  H      2.50537808      5.30897374      8.07417150
  H      5.32403714      2.44780668      6.87492447
  H      4.85573457      2.19756615      9.62681363
  H      3.47879277      3.24682859     11.18593792
  H      3.34795044      5.00574740     10.90298152
  H      1.14692283      4.04433961     11.57138956
  H      1.18866577      2.96872056     10.17309168
  H      1.07590863      4.72126473      9.93986820
  H      3.22383166      3.71963982      5.14833418
  H      4.79664714      4.53119758      5.29157428
  H      3.29090872      5.40956324      5.70225588
  N     -0.62932650      3.78742478      3.43217725
  C     -0.47383502      3.06612085      4.53909155
  N     -0.16463185      3.87453641      5.54832625
  C     -0.06760529      5.14591955      5.06306873
  C     -0.36568213      5.09219701      3.73834315
  C     -0.96046207      3.25776442      2.13519731
  C     -2.45553621      2.97492696      2.02545518
  C      0.13599815      3.47257887      6.89258540
  H     -0.65015451      2.01430012      4.62347754
  H      0.19805447      5.95442185      5.71977251
  H     -0.40368097      5.85144130      2.98455860
  H     -0.66260782      3.98795061      1.37216603
  H     -0.38313715      2.34018073      1.99501685
  H     -2.67458066      2.59575924      1.03150776
  H     -3.02249165      3.89087281      2.17574516
  H     -2.77406375      2.23884133      2.76286330
  H     -0.69676849      2.90983756      7.31479292
  H      0.31494928      4.37483790      7.48196102
  H      1.02506108      2.84129442      6.88743391
  N      4.29986046      2.53529366      1.92489864
  C      4.13383606      3.78253428      2.34276115
  N      3.04902696      4.29052097      1.77418663
  C      2.49262904      3.33911979      0.97897733
  C      3.27938370      2.23341993      1.07285109
  C      5.37343326      1.67635560      2.36319169
  C      4.83593315      0.47238901      3.12649099
  C      2.53133003      5.61558053      1.96531047
  H      4.83600219      4.27608761      3.00391143
  H      1.60279714      3.54686574      0.41397928
  H      3.17600338      1.26832492      0.62198952
  H      5.94860893      1.35452609      1.48747965
  H      6.01348366      2.28961725      3.00638526
  H      5.64483911     -0.02770944      3.65023263
  H      4.35665753     -0.23902300      2.45611702
  H      4.09706535      0.80608372      3.85025602
  H      2.16718140      5.72727573      2.98686480
  H      1.70817189      5.76454575      1.26061578
  H      3.31719935      6.34888321      1.78952817
 Cl      1.88634719      2.03993386      4.05319266
 Cl      6.79208971      4.39047617      3.95512297
 Cl      0.68324077      6.57948794      8.02883598
 Cl      4.83260103      1.51727677     11.88929831
 Cl      0.01537054      5.34553922     -0.27739463

