#B3LYP/6-31+G(d) OPT FREQ

62, Energy =    -96.27130554 au

0 1
  N      9.87336714      8.17205169      8.96627624
  C      8.67504134      8.18160860      9.54614055
  N      7.80923532      7.55423356      8.75728612
  C      8.47822355      7.11698283      7.65271788
  C      9.77503508      7.50151603      7.78398069
  C     11.10412183      8.68678013      9.51608805
  C     11.61940727      7.78190631     10.63293024
  C      6.44261652      7.24642046      9.06484529
  H      8.44057758      8.61959228     10.49403577
  H      7.97913743      6.51468423      6.92062033
  H     10.65102438      7.34748058      7.17246167
  H     11.83075177      8.71681848      8.70037938
  H     10.92207187      9.69747199      9.89373799
  H     12.34835492      8.31298241     11.23869266
  H     12.09761602      6.90661354     10.20383177
  H     10.79928896      7.45389385     11.26762025
  H      6.39498296      6.91974061     10.10426445
  H      6.12602670      6.43400635      8.40888564
  H      5.80099630      8.11645655      8.91878564
  N      9.82480572      8.15392311      4.14094230
  C      8.49325583      8.20796388      4.02705729
  N      7.99166771      6.99747586      4.28319293
  C      9.04070012      6.13256336      4.46132621
  C     10.18292350      6.85554576      4.38075240
  C     10.71880241      9.25812952      3.91328416
  C     11.09945429      9.94030474      5.22270023
  C      6.60851356      6.62463004      4.21834563
  H      7.91845998      9.10899627      3.99066376
  H      8.87296930      5.09129687      4.64088049
  H     11.20699259      6.57633382      4.52220196
  H     11.61807044      8.87327837      3.42798758
  H     10.21562528      9.94362835      3.22641050
  H     11.71749816     10.81040558      5.01881753
  H     11.66670221      9.24590711      5.84010579
  H     10.21089094     10.25750816      5.76527156
  H      6.34929875      6.32969866      3.19969142
  H      5.99036697      7.47456450      4.50067343
  H      6.42700296      5.79558099      4.90477671
  N      9.25883310      3.40537628      8.24172516
  C      8.39227218      4.04269720      9.02128879
  N      7.55175392      3.16835753      9.55617148
  C      7.84603981      1.93748980      9.05508610
  C      8.92052355      2.08640648      8.23404900
  C     10.33764967      4.04054727      7.52096631
  C     11.38922476      4.58239524      8.47917949
  C      6.45836102      3.53546335     10.40685791
  H      8.41920875      5.07925099      9.29791319
  H      7.27963783      1.06420834      9.30605667
  H      9.45067413      1.36297306      7.64929780
  H     10.77198631      3.30773669      6.83915492
  H      9.91748955      4.86076294      6.93566825
  H     12.04117794      5.27142516      7.94574354
  H     11.98650754      3.77949585      8.90578607
  H     10.90609328      5.12323245      9.28781743
  H      6.79129162      4.35406017     11.04943583
  H      6.14531966      2.68256517     11.00506551
  H      5.62678021      3.88336577      9.79081496
 Cl      8.21515128      8.46316276      1.58031944
 Cl    -22.44815870    -19.03834935      6.97096087
 Cl      8.43955961      6.10528616     11.48006615
 Cl     12.80723707      7.27525489      6.71098600
 Cl      6.62721505      4.50130222      6.95734946

