62
Energy =    -96.26450827 au
  N      5.05363915      7.02292974      3.85904425
  C      5.35062731      6.21017311      2.85186820
  N      6.22606801      6.81399202      2.05484413
  C      6.50597441      8.04360455      2.56537073
  C      5.76971404      8.17499843      3.70191320
  C      4.17033592      6.69446093      4.95447655
  C      4.96569003      6.40524136      6.22053349
  C      6.80340444      6.29407030      0.84710725
  H      4.88310263      5.24015334      2.72340095
  H      7.20577510      8.69056611      2.05435435
  H      5.69775496      8.98876262      4.39337385
  H      3.49126761      7.53450859      5.11974474
  H      3.59954224      5.81387397      4.64743511
  H      4.28882742      6.27903658      7.06181293
  H      5.64078811      7.22813609      6.44838727
  H      5.54872838      5.49590012      6.10075528
  H      6.02067050      6.06401407      0.12478050
  H      7.36448057      5.38456419      1.05902463
  H      7.47566357      7.06218086      0.44446232
  N     -0.33179303      3.76844964     10.10294672
  C      0.98239631      3.83467617     10.29988167
  N      1.31246676      2.98757179     11.26991909
  C      0.18985481      2.35490269     11.70329521
  C     -0.84506141      2.84510473     10.96933538
  C     -1.08287823      4.49727767      9.10440329
  C     -1.56124703      3.57249770      7.99520827
  C      2.62533410      2.74966325     11.80061485
  H      1.65373151      4.52066265      9.78819144
  H      0.25535868      1.63439802     12.50855601
  H     -1.88992644      2.61672513     11.00023451
  H     -1.94344354      4.96746100      9.58628997
  H     -0.43135256      5.27619262      8.70790883
  H     -2.16663688      4.13823676      7.28408692
  H     -2.17576232      2.77265643      8.40195965
  H     -0.71987546      3.12953421      7.46885916
  H      3.08391788      3.69096604     12.09944069
  H      3.25567205      2.27662245     11.04745357
  H      2.51713576      2.08181679     12.66367339
  N      1.50914210      4.10043237      5.88438620
  C      1.13737874      5.27776816      6.37691821
  N      0.05690258      5.69676700      5.73093779
  C     -0.27197484      4.76432278      4.79679045
  C      0.64347456      3.76116799      4.89218337
  C      2.64864384      3.33618667      6.32397182
  C      2.21757964      2.05224715      7.02323185
  C     -0.67333112      6.90333061      5.98168129
  H      1.64011533      5.77514447      7.19831359
  H     -1.14614147      4.86848521      4.18855701
  H      0.76235068      2.87192476      4.31043429
  H      3.25273632      3.11631158      5.43729603
  H      3.21651147      3.96508691      7.01106063
  H      3.09704565      1.48642399      7.31697614
  H      1.61442876      1.43385087      6.36241351
  H      1.64009565      2.28021176      7.91739447
  H     -0.55144726      7.59765429      5.14997302
  H     -0.31154570      7.36267857      6.89795556
  H     -1.73945087      6.64071134      6.07021426
 Cl      8.61150853      9.01518809      0.33635327
 Cl      3.26166504      3.87001461      3.13511272
 Cl     -3.51008517      5.38572674      5.89429451
 Cl      1.44132743      0.64654101     14.09528542
 Cl      2.73547916      6.17567528      8.99424389
