#B3LYP/6-31+G(d) OPT FREQ

62, Energy =    -96.26396783 au

0 1
  N      2.43444756      2.83009771      6.89049286
  C      1.33396239      2.09085422      6.93085305
  N      0.33842751      2.75255333      6.35009533
  C      0.82060383      3.94627075      5.90876040
  C      2.13737282      3.99368508      6.24312564
  C      3.73816006      2.43893812      7.36414572
  C      4.65532909      2.15225823      6.18257673
  C     -1.00478687      2.28511168      6.15832591
  H      1.25696038      1.12082719      7.37791127
  H      0.18366734      4.62284546      5.36850037
  H      2.87071147      4.75498825      6.08004552
  H      4.12428101      3.23539258      8.00796515
  H      3.61447429      1.53502568      7.96408232
  H      5.62063386      1.80302639      6.53725548
  H      4.80467543      3.04267151      5.57773760
  H      4.19930511      1.37899754      5.56824149
  H     -0.97642515      1.26619556      5.77199911
  H     -1.49098905      2.94766196      5.43756685
  H     -1.55564427      2.29870239      7.10104042
  N      3.32171502      2.53945330      2.61553673
  C      2.27772106      1.71607012      2.56630017
  N      1.16226573      2.42360985      2.68388728
  C      1.49651999      3.73647219      2.81577489
  C      2.85430523      3.81133645      2.77102657
  C      4.70591149      2.16192349      2.47131332
  C      5.01300107      1.76868994      1.02933149
  C     -0.16528434      1.88560211      2.73827171
  H      2.32712972      0.65058734      2.47856904
  H      0.73470343      4.48039908      2.95205694
  H      3.53157787      4.64142733      2.83736471
  H      5.31347206      3.02677823      2.75436624
  H      4.91447605      1.32903420      3.14674986
  H      6.05965706      1.49145974      0.94394226
  H      4.82647167      2.61131369      0.36715234
  H      4.39931147      0.92647937      0.71340533
  H     -0.47025470      1.51710221      1.75792292
  H     -0.84404989      2.67827485      3.06430594
  H     -0.16628126      1.06052907      3.45028212
  N      6.17595872      7.49275774      5.73493547
  C      5.92328567      8.22412761      6.82586002
  N      5.23573215      7.47695257      7.69472415
  C      5.04985157      6.24528252      7.14548507
  C      5.64251035      6.25255385      5.92063063
  C      6.94584460      7.89654988      4.58611398
  C      8.44035368      7.80144118      4.87787678
  C      4.73964869      7.87150148      8.98213498
  H      6.21380668      9.24525583      6.97218615
  H      4.53329269      5.49282446      7.72160796
  H      5.70817550      5.51998097      5.13354630
  H      6.68190531      7.21054946      3.77120558
  H      6.67161549      8.91940643      4.31444875
  H      9.00251932      8.11523575      4.00338900
  H      8.70593155      6.77217549      5.10488377
  H      8.71877654      8.43309296      5.72113445
  H      5.54047186      8.29371187      9.58874529
  H      4.33531168      6.97153071      9.46506519
  H      3.94278165      8.60839247      8.87471106
 Cl     42.42777246      0.84004044      8.11805266
 Cl      5.96305574      5.27724840      2.84204255
 Cl      3.64619736      4.86896185      9.68717787
 Cl      1.82523135      0.19594314      4.93485952
 Cl     -1.64200784      4.69141185      3.81482048

