62
Energy =    -96.25939409 au
  N      2.46308773      1.61081970      8.84077168
  C      2.93385989      2.51633607      7.98977107
  N      4.16990094      2.84070992      8.34785542
  C      4.50737898      2.12012827      9.44989433
  C      3.43428330      1.34297146      9.75959135
  C      1.14993678      1.02422500      8.75929131
  C      1.15440320     -0.17808175      7.82317922
  C      5.05626260      3.73294776      7.65881125
  H      2.33200266      2.97642258      7.22167130
  H      5.46398764      2.25323250      9.92383393
  H      3.29021161      0.63968344     10.55465014
  H      0.83710510      0.73277791      9.76500198
  H      0.48525421      1.81234945      8.37090499
  H      0.15318320     -0.59396299      7.75449428
  H      1.83511415     -0.95124889      8.18021239
  H      1.47015462      0.13096372      6.83041568
  H      5.37885777      3.25635840      6.73082470
  H      5.92061078      3.91734479      8.29760260
  H      4.54309429      4.66460371      7.42642087
  N      9.50145482      3.07033701      2.63875060
  C      9.01305594      1.91656098      2.16850633
  N      7.78180823      1.74062949      2.64399132
  C      7.49848546      2.76837730      3.49761979
  C      8.57172805      3.59740634      3.49738380
  C     10.85776280      3.51178080      2.45341244
  C     11.10083583      4.01972686      1.03508533
  C      6.95921433      0.57984092      2.45286131
  H      9.48378593      1.29728780      1.43645489
  H      6.58515971      2.76283557      4.06333924
  H      8.75082144      4.50817647      4.03080400
  H     11.06292780      4.29980036      3.17981622
  H     11.50685546      2.65636470      2.66874807
  H     12.13136956      4.34889663      0.93535047
  H     10.44431905      4.85671032      0.81063711
  H     10.91758540      3.23081674      0.31134649
  H      6.22831387      0.55551497      3.26664475
  H      7.59033845     -0.30674519      2.49131255
  H      6.44438353      0.62419724      1.49270429
  N      7.53563623     -0.65365708      6.50525475
  C      8.08557427      0.47784406      6.07767311
  N      8.10292485      1.35293257      7.07104740
  C      7.51308782      0.78909471      8.15690390
  C      7.15090208     -0.47065791      7.80054010
  C      7.27886892     -1.80466842      5.67913061
  C      8.57232369     -2.39019082      5.12707439
  C      8.59753392      2.69725345      7.02565914
  H      8.52228014      0.62470574      5.10672022
  H      7.40854017      1.35149558      9.06959348
  H      6.64800812     -1.23000585      8.36115353
  H      6.75077584     -2.54437878      6.28729351
  H      6.61827483     -1.48837521      4.86713011
  H      8.35204755     -3.22662216      4.46712099
  H      9.20665403     -2.74407850      5.93672764
  H      9.12582118     -1.64262468      4.56359418
  H      9.64928393      2.70057804      6.73904465
  H      8.46913252      3.13341982      8.02063408
  H      8.02547730      3.27252071      6.29878076
 Cl      0.17462148      3.83697766      7.53271358
 Cl     35.87197947     28.06976652      4.98945042
 Cl     10.39623209      0.32528521      3.64113330
 Cl      5.37781969      1.14122826      5.32292424
 Cl      7.53811487      3.33933104     10.16112328
