#B3LYP/6-31+G(d) OPT FREQ

62, Energy =    -96.15928195 au

0 1
  N      2.74083653      7.14998747      1.73374158
  C      2.42591419      7.66302280      0.50975723
  N      3.15507965      6.99155096     -0.42799968
  C      3.89285183      6.03699376      0.21280246
  C      3.64174885      6.13855413      1.54100852
  C      2.18010150      7.59605691      2.97391157
  C      0.68610006      7.28212167      3.06202967
  C      3.07115150      7.14928872     -1.84720207
  H      1.92276937      8.59189602      0.35254401
  H      4.55310197      5.40226767     -0.34422692
  H      4.03575578      5.57720496      2.36379744
  H      2.71675516      7.09827849      3.78431876
  H      2.35313827      8.67695088      3.05087526
  H      0.29120478      7.64054512      4.00893743
  H      0.51439705      6.20913107      2.99464796
  H      0.14852203      7.77056510      2.25395594
  H      2.17314366      6.66348086     -2.24190718
  H      3.95398185      6.67985704     -2.28987645
  H      3.04043720      8.20621065     -2.10776699
  N      6.67332881      8.47865674      0.02385006
  C      6.92242790      7.19459429      0.29609173
  N      7.35914703      7.10565765      1.55564424
  C      7.38003333      8.35625180      2.09576566
  C      6.95280637      9.21724378      1.13620056
  C      6.20419060      8.96487366     -1.25062757
  C      5.14458531     10.04421349     -1.07267879
  C      7.74526406      5.92116461      2.26636668
  H      6.78083098      6.40028888     -0.42097617
  H      7.71865743      8.50047260      3.10683151
  H      6.79087962     10.27189367      1.17679901
  H      7.05780174      9.36167667     -1.81469525
  H      5.82163023      8.09572515     -1.79320349
  H      4.57360586     10.16572695     -1.98908000
  H      5.59677675     11.00330243     -0.82498466
  H      4.47305714      9.78088569     -0.25862892
  H      6.87763801      5.28527134      2.44766462
  H      8.17916339      6.23226857      3.22036162
  H      8.47899208      5.35638900      1.69231124
  N      5.88975994      9.41748831      5.81034280
  C      6.35030748     10.08491607      4.73007407
  N      7.51458058     10.68548758      5.06322781
  C      7.79955364     10.35632477      6.35910978
  C      6.79708859      9.57346893      6.82079226
  C      4.82315283      8.45570304      5.75562109
  C      5.29797398      7.19837610      5.02604731
  C      8.44414836     11.25833088      4.13509329
  H      5.83182576     10.14536807      3.78971104
  H      8.69815743     10.68036434      6.84190520
  H      6.66734318      9.10746580      7.77620229
  H      4.51808786      8.22645216      6.78087444
  H      3.98623732      8.90982472      5.21691681
  H      4.65850013      6.34987962      5.26010156
  H      6.32069716      6.96773128      5.31802514
  H      5.28903673      7.38100983      3.95472692
  H      9.18597501     10.50217592      3.85812167
  H      8.95220435     12.11077881      4.58934879
  H      7.90701251     11.57774602      3.24426462
 Cl     18.20008437    -12.16997067     19.18285745
 Cl      6.00929115      5.63718828     -2.37964542
 Cl      4.10425885     10.15772224      2.31830135
 Cl      8.84749008      7.78703602      4.95109315
 Cl     20.00749834    -10.31183348     20.17942444

