#B3LYP/6-31+G(d) OPT FREQ

62, Energy =    -96.27595920 au

0 1
  N      5.32392150      4.09971617      8.89268761
  C      4.50638708      3.66897062      7.94042813
  N      5.21536817      3.44997444      6.83661206
  C      6.52119431      3.74196082      7.09709939
  C      6.58858652      4.14917604      8.39201134
  C      4.92919172      4.44928578     10.23421937
  C      5.37117231      3.37525762     11.22158701
  C      4.72205546      3.01465314      5.55982195
  H      3.43480336      3.54889932      8.09251305
  H      7.26281761      3.64793405      6.32619008
  H      7.40657067      4.52819062      8.96551440
  H      5.39965425      5.40646743     10.47697499
  H      3.83982609      4.53399141     10.24080446
  H      5.07993434      3.66651597     12.22672893
  H      6.45134134      3.24608285     11.19480382
  H      4.89109763      2.42875838     10.98242815
  H      4.37828072      1.98023616      5.61566108
  H      5.54257586      3.09157818      4.84051897
  H      3.88921637      3.64597098      5.24727660
  N      3.42147009      8.14508649      8.11136756
  C      4.74689006      8.14796634      8.10498950
  N      5.18430331      9.39010930      7.95339102
  C      4.10589620     10.20360913      7.80320676
  C      2.99818724      9.42337133      7.90978287
  C      2.57145544      7.00596157      8.34985791
  C      2.06417128      6.99251002      9.78606338
  C      6.56355188      9.74154550      7.79820772
  H      5.40110800      7.31301866      8.29001386
  H      4.19995856     11.25413722      7.61887353
  H      1.96039274      9.67573226      7.84054624
  H      1.73305934      7.03525891      7.65301354
  H      3.14059969      6.09654976      8.16035107
  H      1.57582079      6.03535211      9.95046614
  H      1.35705992      7.79889857      9.96816618
  H      2.89674716      7.08270691     10.48032468
  H      6.72849137     10.76598723      8.12501981
  H      6.83108928      9.63646609      6.74551250
  H      7.15697743      9.04458912      8.39457473
  N      7.93862113      6.94097384      5.13723623
  C      6.81676779      6.33576179      4.77238293
  N      6.59975036      6.54456960      3.48189289
  C      7.61458199      7.30660099      2.99944457
  C      8.45978972      7.55302540      4.03405846
  C      8.58083540      6.85513445      6.42515036
  C      9.64165841      5.75800656      6.40864186
  C      5.46745823      6.03946433      2.76804136
  H      6.17741341      5.77664577      5.41975901
  H      7.66363003      7.61226797      1.97434039
  H      9.37305513      8.10998257      4.07018317
  H      9.03427370      7.82276432      6.65389732
  H      7.82896868      6.64319663      7.18746708
  H      9.93956340      5.52257557      7.42510672
  H     10.51821263      6.06950036      5.84407221
  H      9.23487508      4.86581906      5.94050568
  H      5.49498194      6.38738512      1.73810478
  H      4.56342616      6.40264780      3.25982986
  H      5.49698168      4.94909868      2.79526931
 Cl      7.25799769      7.01878409      9.64709911
 Cl      7.67871626      3.72563841      4.01362894
 Cl      4.80146202      8.20729638      5.25388058
 Cl      1.61949010      3.72865604      9.15263180
 Cl     -7.39213569    -46.58207505     -4.46152133

