#B3LYP/6-31+G(d) OPT FREQ

62, Energy =    -96.24509210 au

0 1
  N      2.23181592      5.09358174      8.99861578
  C      1.60750973      4.78254177     10.13298176
  N      1.37488093      3.47116597     10.15449161
  C      1.78798189      2.94653640      8.96570251
  C      2.32619017      3.95887309      8.24407539
  C      2.63990859      6.41936457      8.61546155
  C      3.56785254      7.02913086      9.66509395
  C      0.66389153      2.79904653     11.19957826
  H      1.49964127      5.43458469     10.97272333
  H      1.68817055      1.90566967      8.73697857
  H      2.77372640      3.95730738      7.27167467
  H      3.14484614      6.33879180      7.65016152
  H      1.73605909      7.02574634      8.49209523
  H      4.21672393      7.77799521      9.21843447
  H      4.17521650      6.24269641     10.10573063
  H      2.99384711      7.49871189     10.45793327
  H      1.21930270      2.87573780     12.13547883
  H      0.53561758      1.75059260     10.93826524
  H     -0.31152354      3.27784339     11.31436529
  N      8.00914424      1.44567650      0.25723906
  C      7.18590249      0.56168435     -0.31717662
  N      7.30861573      0.65712723     -1.63833827
  C      8.28559016      1.56460589     -1.92350740
  C      8.72713473      2.05841416     -0.74104054
  C      8.23237913      1.60333629      1.67115277
  C      9.45009139      0.80161347      2.11768514
  C      6.63062149     -0.13073462     -2.62515968
  H      6.43870099     -0.00255950      0.19939335
  H      8.50658643      1.81008120     -2.94984160
  H      9.47886161      2.78875520     -0.52544586
  H      8.36216933      2.67043888      1.88420205
  H      7.34360184      1.24131773      2.19260005
  H      9.53456746      0.81232511      3.20014210
  H     10.35847040      1.21109986      1.68479336
  H      9.32955541     -0.22375900      1.77097517
  H      7.05112734     -1.13757514     -2.63184536
  H      6.78254985      0.35322498     -3.59664757
  H      5.56715598     -0.19093376     -2.39356990
  N      8.28114583      5.80468635     10.52266809
  C      7.16572134      5.17668944     10.17162719
  N      7.11805725      5.09357267      8.84649918
  C      8.24120900      5.68666313      8.34159556
  C      8.97337004      6.13115809      9.39864366
  C      8.73587696      6.07019070     11.86627786
  C      9.16994692      4.77685951     12.54593995
  C      6.05492183      4.47516235      8.10516945
  H      6.38187922      4.78427167     10.80839057
  H      8.43149567      5.74558345      7.29019681
  H      9.90546316      6.67735517      9.48571578
  H      9.58674988      6.76110498     11.77791875
  H      7.92232958      6.53760336     12.42581231
  H      9.50268650      4.99373822     13.55651009
  H      9.99815806      4.33264782     12.00033699
  H      8.34733889      4.06543418     12.58942790
  H      5.29943266      4.13724932      8.82115903
  H      6.43217294      3.61932630      7.54399598
  H      5.61818671      5.19125948      7.40920217
 Cl      7.48760884      2.02295723     -5.03601404
 Cl      4.41894407      3.83590701     10.96791722
 Cl     -0.72635455      5.57755355      9.64437810
 Cl      8.27337405     -1.72445112      0.18796587
 Cl     11.28673240      7.83043749     10.74308564

