#B3LYP/6-31+G(d) OPT FREQ

62, Energy =    -96.14384584 au

0 1
  N      7.24861085     -1.07037952      6.97642067
  C      8.48143904     -1.59039430      6.91227452
  N      8.64064051     -2.45860599      7.91841804
  C      7.48581019     -2.49397222      8.63770816
  C      6.61512630     -1.62975264      8.04680973
  C      6.68110130     -0.13844023      6.03140773
  C      6.31733276     -0.83005222      4.72289887
  C      9.81962828     -3.22018987      8.21641280
  H      9.21876070     -1.34121280      6.17694536
  H      7.41294223     -3.15083349      9.49088169
  H      5.61579072     -1.34364879      8.30704798
  H      5.79390348      0.29846741      6.49620678
  H      7.41099602      0.65202652      5.83840901
  H      6.08772198     -0.07960098      3.97039194
  H      5.45562269     -1.47887719      4.85493034
  H      7.15270092     -1.42680965      4.36062117
  H      9.57571968     -3.88707721      9.05909294
  H     10.63814246     -2.55851709      8.50232263
  H     10.12104741     -3.80887420      7.35032422
  N      1.59589808      4.61620537      0.70432703
  C      2.49796878      5.35999372      1.49104564
  N      3.62556651      4.55331224      1.65139945
  C      3.38861345      3.34124711      1.07872368
  C      2.17904802      3.37214628      0.47994119
  C      0.63607474      5.20942688     -0.18210267
  C      1.25622163      5.68072062     -1.50315059
  C      4.83205558      4.93271602      2.31476586
  H      2.63005101      6.41604496      1.29272705
  H      4.10956377      2.55168090      1.15905200
  H      1.65902033      2.61223128     -0.06695461
  H     -0.14278076      4.46784938     -0.38896350
  H      0.17788673      6.05805318      0.33453205
  H      0.49476108      6.11287894     -2.14814241
  H      1.72014522      4.84114154     -2.01618357
  H      2.02042931      6.43035794     -1.31117038
  H      5.32884835      5.75152969      1.78396829
  H      5.49259714      4.06488309      2.34298057
  H      4.62689075      5.26146578      3.33795774
  N      4.19300244      2.52526188      5.43804877
  C      3.76455753      2.86135409      6.65384673
  N      4.71089084      3.58515609      7.26210255
  C      5.80859940      3.61409831      6.43851521
  C      5.48031622      2.96005550      5.29852175
  C      3.49112688      1.71352285      4.47481385
  C      2.15258562      2.32914625      4.08771886
  C      4.66378941      3.96378627      8.64418330
  H      2.76435700      2.74637203      7.01422421
  H      6.71814690      4.09699318      6.72884607
  H      6.02854358      2.74518098      4.39597092
  H      4.14792007      1.62353989      3.60463864
  H      3.33705121      0.72446980      4.91635446
  H      1.70779812      1.74678669      3.28641509
  H      2.28657664      3.34732249      3.73202148
  H      1.46574431      2.33664422      4.93145579
  H      5.57655840      4.49095420      8.91129360
  H      4.57324598      3.05261940      9.24287171
  H      3.80062348      4.60246605      8.83703501
 Cl      7.97742010     31.10541019      4.01953800
 Cl      8.50869476     -4.81522046     10.68071600
 Cl      4.01108394      0.74948562      8.01341343
 Cl      5.51885213     31.06586175      3.14436968
 Cl      6.22970582      1.79692879      2.34924336

