#B3LYP/6-31+G(d) OPT FREQ

62, Energy =    -96.28048019 au

0 1
  N      6.21089251      1.64145355      1.43222504
  C      6.01787159      2.90954473      1.08210767
  N      7.10339066      3.60651872      1.39551651
  C      8.00768251      2.76388842      1.96692462
  C      7.44864366      1.52436094      1.98279530
  C      5.27850571      0.55303850      1.25696531
  C      4.88823615      0.40021111     -0.20718409
  C      7.27341982      5.02208810      1.24995300
  H      5.13626936      3.30416986      0.57853939
  H      8.95164800      3.11637527      2.32580479
  H      7.78791817      0.57379141      2.35652531
  H      5.76233613     -0.34674542      1.64829604
  H      4.38363084      0.75603507      1.85114320
  H      4.20720841     -0.43881732     -0.31633414
  H      5.76752097      0.21578966     -0.82027403
  H      4.39154960      1.30051252     -0.56147974
  H      8.19193440      5.23628940      0.70261031
  H      7.34130848      5.45949075      2.25050290
  H      6.41852055      5.43190702      0.71872596
  N      3.65812955      4.47557675      3.27946705
  C      3.95961687      4.89803024      4.50189557
  N      4.51513725      6.09834875      4.41411318
  C      4.58788850      6.44320419      3.09770490
  C      4.03905522      5.42435238      2.38341987
  C      3.01394228      3.22659672      2.95043995
  C      1.63209663      3.14311792      3.58736714
  C      5.04915882      6.84834018      5.51169406
  H      3.70538412      4.38731059      5.42670957
  H      5.02298181      7.36610428      2.77403315
  H      3.88316437      5.27880493      1.32707698
  H      2.94861183      3.17772726      1.85931108
  H      3.64055380      2.41175555      3.32421276
  H      1.17356732      2.19085825      3.33732566
  H      0.99524212      3.94267649      3.21669843
  H      1.70570469      3.22183245      4.66979372
  H      4.86972147      7.91247187      5.36275326
  H      6.12422314      6.66006970      5.56608076
  H      4.57696155      6.51200502      6.43191427
  N      6.23240474      2.69942321      6.91711213
  C      7.49716821      2.44105792      6.60956364
  N      7.53929860      1.51315556      5.66159955
  C      6.26162014      1.18710374      5.32793917
  C      5.43966991      1.93273036      6.11820132
  C      5.76251388      3.60014134      7.94352580
  C      6.66663247      4.81749132      8.07380284
  C      8.72789942      0.95446798      5.08406286
  H      8.35481976      2.91343580      7.04190710
  H      6.07190286      0.43514748      4.58430265
  H      4.37050136      2.00652768      6.18250039
  H      4.73681557      3.88149025      7.67548727
  H      5.71516173      3.05042971      8.89109468
  H      6.13481763      5.62362363      8.57007305
  H      6.96558146      5.14546207      7.08172310
  H      7.56230598      4.59370842      8.65111342
  H      9.43038197      0.67780355      5.87040540
  H      9.19602180      1.68504669      4.42498664
  H      8.44385302      0.06787017      4.50756398
 Cl      7.24185958     -1.42496634      3.32231169
 Cl      7.37072201      4.62905922      4.56022132
 Cl      2.58402931      3.63997016      7.07146556
 Cl     14.57198738     37.58501406      8.29756975
 Cl      3.48938845      3.98544464     -0.50099618

