#B3LYP/6-31+G(d) OPT FREQ

62, Energy =    -96.28111146 au

0 1
  N      5.85957231      2.38420991      1.62122837
  C      5.56927988      2.14146712      0.34452952
  N      5.95630481      0.91211273      0.03925194
  C      6.50413945      0.34872648      1.14873962
  C      6.44822643      1.27261954      2.14635582
  C      5.64005380      3.63374727      2.31299433
  C      4.91148156      3.44184589      3.63550385
  C      5.79196916      0.27955015     -1.23587112
  H      5.11225132      2.80710652     -0.37696634
  H      6.86858331     -0.65697700      1.14313181
  H      6.77815972      1.21575389      3.17192265
  H      6.61655611      4.09397167      2.50177647
  H      5.06966523      4.28082746      1.64314340
  H      4.81680960      4.40292331      4.13343078
  H      5.47565270      2.77535538      4.28210794
  H      3.91537771      3.03761810      3.48279716
  H      5.12834492     -0.57966051     -1.11183869
  H      6.75575031     -0.06496043     -1.61055769
  H      5.35954414      1.00526550     -1.92356664
  N      2.10639330      0.59953761     -0.90474399
  C      1.57194358     -0.30520939     -0.09229814
  N      1.38860677      0.24081824      1.10452238
  C      1.83799729      1.52736073      1.06202493
  C      2.28314578      1.75395924     -0.20212248
  C      2.41757931      0.41865080     -2.29948398
  C      1.14999209      0.45120295     -3.14707278
  C      0.83561883     -0.40802778      2.25929837
  H      1.32458065     -1.31209792     -0.35865268
  H      1.77546456      2.15557105      1.93254101
  H      2.72948071      2.60933391     -0.67280915
  H      3.08448965      1.23797412     -2.58715332
  H      2.93198382     -0.53759732     -2.41558926
  H      1.41258584      0.33674671     -4.19469670
  H      0.64164005      1.40431861     -3.02245918
  H      0.46836412     -0.35067899     -2.86732223
  H      0.75288218      0.33153645      3.05976735
  H      1.49318183     -1.21889256      2.57236223
  H     -0.14984028     -0.81360774      2.02769489
  N      5.25067397     -1.24906212      4.25555767
  C      5.14512662     -0.62117418      5.42642356
  N      4.16185115      0.26904964      5.35271895
  C      3.65818568      0.24623431      4.08603635
  C      4.33711246     -0.70093489      3.39425477
  C      6.25330279     -2.22686223      3.91583396
  C      5.66198166     -3.39368150      3.13658395
  C      3.76810441      1.20618875      6.36361823
  H      5.70082357     -0.86138799      6.30851122
  H      2.84980990      0.90354612      3.82093927
  H      4.23104406     -1.02676453      2.37650927
  H      7.03228280     -1.72825860      3.33045355
  H      6.70807717     -2.57160534      4.84825635
  H      6.44533969     -4.10704329      2.89424229
  H      5.20679405     -3.05429451      2.20937622
  H      4.90092590     -3.89940611      3.72719415
  H      3.47365552      0.68796410      7.27687420
  H      2.92821916      1.78355067      5.97652323
  H      4.60636161      1.86926901      6.58253347
 Cl      3.81567980     -1.96057487      0.31050453
 Cl      1.16321771      2.33577290      4.22024758
 Cl      6.98196244     33.48573144      8.18322364
 Cl      4.34889126      3.21180218     -2.39935010
 Cl      7.22522368      1.01459282      5.33961682

