62
Energy =    -96.27514625 au
  N      3.88034147      4.08184152      7.02658615
  C      5.11377068      3.65523449      6.76879875
  N      5.06931673      2.79096456      5.75590676
  C      3.76615580      2.65559240      5.36926197
  C      3.02256415      3.46779509      6.16770379
  C      3.48805352      5.02061501      8.05258025
  C      4.29656611      6.30766445      7.97936410
  C      6.21713332      2.13301678      5.19973099
  H      6.04173110      3.97900282      7.21633653
  H      3.47081712      2.01419202      4.56537863
  H      1.96322484      3.67401361      6.21554632
  H      2.41746114      5.20455580      7.91329777
  H      3.63747475      4.54610279      9.02825786
  H      3.98671044      6.97223915      8.78060244
  H      4.14210573      6.82863770      7.03811599
  H      5.35925314      6.10855950      8.09594257
  H      7.10386373      2.70203398      5.49486582
  H      6.13853625      2.09559830      4.11425427
  H      6.29996809      1.11491497      5.58447289
  N      1.61533047      8.01509459      5.55643806
  C      2.09276595      9.04580586      4.86668934
  N      2.46998468      8.62630576      3.66362330
  C      2.26726466      7.27830354      3.59683625
  C      1.73004809      6.89511284      4.78484432
  C      1.12897904      8.05699954      6.91231192
  C     -0.12727056      8.91284470      7.02643901
  C      3.05616340      9.43517380      2.63453229
  H      2.12508979     10.06020662      5.20477237
  H      2.54237154      6.73362247      2.71370445
  H      1.39336647      5.94609730      5.15746540
  H      0.90119254      7.02743651      7.20402206
  H      1.92696065      8.45827305      7.54305949
  H     -0.47100464      8.91057030      8.05691695
  H     -0.91611295      8.50088075      6.40111902
  H      0.06396928      9.94118947      6.72517907
  H      3.36323762      8.77829423      1.81720953
  H      3.92406994      9.95369670      3.04147998
  H      2.33500184     10.16768844      2.26784673
  N      7.02920369      7.98623314      5.09728063
  C      6.56374116      6.74405077      5.03483893
  N      5.90808834      6.58940433      3.89016313
  C      5.94853421      7.76115797      3.20412363
  C      6.65173033      8.64055342      3.96717019
  C      7.74929098      8.54728198      6.21200738
  C      9.10460259      7.87433907      6.38505130
  C      5.23899004      5.40564019      3.43129968
  H      6.77259542      5.96721652      5.75572413
  H      5.46632799      7.84498640      2.24671629
  H      6.88161870      9.67282082      3.80512548
  H      7.85832908      9.61846941      6.02943486
  H      7.13645140      8.41672982      7.10751989
  H      9.62201365      8.30070746      7.23988641
  H      9.71894636      8.01428875      5.49754106
  H      8.97676589      6.80808271      6.55432772
  H      4.85823299      5.60601437      2.42485382
  H      4.39863501      5.17098789      4.08550095
  H      5.93623131      4.56894853      3.41544344
 Cl     12.86444622    -20.81926451     27.92571783
 Cl      4.01514017      6.85728707      0.66784396
 Cl      0.23726225      4.78020127      7.03519858
 Cl      4.47755514      9.29926747      6.05141250
 Cl      8.14980950      4.41896338      6.70012988
