62
Energy =    -96.25641957 au
  N      9.41435794      1.59021470      6.81701421
  C      9.22149035      2.03109835      5.57784046
  N     10.35343241      2.54713796      5.11741423
  C     11.31262966      2.39153399      6.07013672
  C     10.72888678      1.78888690      7.13727868
  C      8.42403500      0.92653409      7.62600829
  C      8.42928406     -0.57316766      7.34444772
  C     10.49037094      3.11035132      3.80866559
  H      8.28812640      2.04009179      5.06152545
  H     12.32076720      2.72364163      5.92923810
  H     11.13541798      1.49634399      8.08291004
  H      8.64234340      1.13478382      8.67820308
  H      7.45138694      1.35686993      7.37639482
  H      7.56253152     -1.04786065      7.79652418
  H      9.33235051     -1.03378171      7.73799344
  H      8.40665276     -0.73050631      6.26698067
  H     10.24447327      2.33559899      3.07953749
  H     11.50755598      3.46360843      3.65982808
  H      9.78637940      3.93966563      3.71942886
  N      5.80430864      4.24359041      2.72991739
  C      4.71975648      4.42427385      1.97267967
  N      4.64549105      5.71088925      1.62159416
  C      5.70979979      6.36198162      2.16360739
  C      6.43698827      5.44220657      2.85458340
  C      6.28320914      3.00493242      3.29333307
  C      7.14601559      2.24959423      2.28859642
  C      3.63049094      6.33424317      0.82404664
  H      4.01758113      3.66156080      1.70263890
  H      5.79939199      7.42885255      2.05333466
  H      7.30611184      5.53655944      3.47803509
  H      6.86920573      3.28880017      4.17397860
  H      5.42852111      2.39791365      3.59721581
  H      7.61982589      1.39281187      2.76591863
  H      7.92827100      2.90177621      1.91001083
  H      6.54867686      1.89656685      1.44960184
  H      3.83466091      6.19131508     -0.23851053
  H      3.65446661      7.41064633      1.05193047
  H      2.65473589      5.91442542      1.06091942
  N      2.83968358      7.49579156      4.73178467
  C      3.92850796      8.23699670      4.97334282
  N      4.95753131      7.41944213      5.20791078
  C      4.48847430      6.13520500      5.24279993
  C      3.16846743      6.18098761      4.93925427
  C      1.52616214      8.04315831      4.51190118
  C      1.26055547      8.29147005      3.03110321
  C      6.28209061      7.83452341      5.56886842
  H      4.01516175      9.27629055      4.73125927
  H      5.13739874      5.31774284      5.48554311
  H      2.43975920      5.39867077      4.86568619
  H      0.78946980      7.35166567      4.93180064
  H      1.48102252      8.97870575      5.07491464
  H      0.36200695      8.88981546      2.90704191
  H      1.12861613      7.35083414      2.49880861
  H      2.10459117      8.82008570      2.59226659
  H      6.68434729      8.49285790      4.79861613
  H      6.91494758      6.95498637      5.67464330
  H      6.23888035      8.37567815      6.51615040
 Cl    -16.63976180    -10.76494532    -27.44137956
 Cl      3.35092903      9.02551761      7.23370133
 Cl      9.23447741     -0.09142414      3.98441954
 Cl      8.02388121      4.63501422      5.63520723
 Cl      4.42009824      9.27441330      1.90101768
