62
Energy =    -96.24784662 au
  N      4.56197261      1.90247208      2.41552422
  C      5.55726196      1.39350931      1.66194218
  N      6.48140233      0.84928920      2.48284305
  C      6.04033138      1.00249728      3.76864375
  C      4.84900066      1.65132853      3.72250275
  C      3.36175690      2.53232721      1.93812246
  C      2.22416114      1.52155090      1.81580983
  C      7.70374358      0.24335339      2.04562627
  H      5.69387526      1.52230831      0.60848817
  H      6.60306796      0.64686167      4.60697329
  H      4.21256606      1.99876341      4.50978942
  H      3.10150326      3.31756601      2.65481136
  H      3.57617197      2.98654469      0.96950969
  H      1.32842883      2.01911807      1.45644548
  H      2.00630368      1.07803433      2.78430620
  H      2.48834804      0.72828694      1.11874645
  H      8.45340490      0.30980079      2.83215528
  H      8.04981503      0.77805729      1.15641148
  H      7.54949289     -0.80749656      1.78693577
  N      8.40051254      5.26664266      2.17629715
  C      7.95452515      6.27870951      2.91657672
  N      7.16910757      5.79520463      3.87918194
  C      7.12743050      4.43850751      3.75497815
  C      7.90335826      4.10850527      2.68753792
  C      9.26379130      5.38015626      1.02931081
  C     10.72996127      5.31333083      1.44295282
  C      6.44512462      6.55549545      4.85593552
  H      8.10706404      7.31507130      2.67348039
  H      6.51581642      3.84043189      4.39791766
  H      8.09833335      3.17100688      2.20897998
  H      9.02108002      4.55465140      0.35556997
  H      9.04385789      6.33782162      0.55182448
  H     11.35847631      5.37655057      0.55987698
  H     10.94128505      4.37448812      1.95112222
  H     10.97936146      6.13887348      2.10646240
  H      6.92325525      6.48003425      5.83423295
  H      5.43082739      6.14674756      4.92577990
  H      6.41037275      7.59875424      4.55198033
  N      4.77957269      6.94637532      1.09671680
  C      5.39989466      7.12248166     -0.06792075
  N      5.96620574      5.97670742     -0.43579530
  C      5.74250026      5.05682252      0.54750548
  C      5.00389617      5.66185227      1.51123572
  C      4.09193633      7.96618950      1.85068582
  C      2.77180187      7.45475776      2.41025272
  C      6.78381514      5.76353082     -1.59501782
  H      5.36792856      8.01548099     -0.65691815
  H      6.16102575      4.07018910      0.47644291
  H      4.63001571      5.28530136      2.44707037
  H      4.74612382      8.29364597      2.66456322
  H      3.93255593      8.81854995      1.18527977
  H      2.26245489      8.25946934      2.93312142
  H      2.93790366      6.64157172      3.11256879
  H      2.12899704      7.09832620      1.60820033
  H      6.18773527      5.82545586     -2.50695801
  H      7.23254603      4.77367981     -1.51965932
  H      7.56600732      6.52255385     -1.62455928
 Cl      7.76255183      2.55503785     -0.35063353
 Cl      7.55179044      8.42023321      0.72190344
 Cl     35.94037357     -1.49825083     15.68469221
 Cl      3.77127871      4.66212258      4.47962044
 Cl    -30.22405668      0.00428632     13.16663617
