#B3LYP/6-31+G(d) OPT FREQ

62, Energy =    -96.26114814 au

0 1
  N      4.43295301      5.98094439      2.91537194
  C      4.41744395      4.79721477      3.52270625
  N      5.63953241      4.27575629      3.47645899
  C      6.45779710      5.15002209      2.82777087
  C      5.69888515      6.22542628      2.47570738
  C      3.32225153      6.88709632      2.76950388
  C      3.43610147      8.04892380      3.75097851
  C      6.03911590      2.98920636      3.96938952
  H      3.55635914      4.32923331      3.97437307
  H      7.50517463      4.93399506      2.72638472
  H      5.90565140      7.11882861      1.91212274
  H      3.37095766      7.31121097      1.75928664
  H      2.39970279      6.32243870      2.91881726
  H      2.52022520      8.63239797      3.72922177
  H      4.25558655      8.68870612      3.43578046
  H      3.61156672      7.70396125      4.76926037
  H      7.11961960      3.02026539      4.17279101
  H      5.85365981      2.22626207      3.21148470
  H      5.47322621      2.74157535      4.86440477
  N     -0.69860595      3.63205846      7.84174347
  C      0.47230146      3.00571619      7.87658423
  N      0.82249934      2.81677631      9.14414502
  C     -0.15578454      3.33488538      9.93883957
  C     -1.11649788      3.84138910      9.11813681
  C     -1.42406257      3.99844433      6.65191874
  C     -2.36618020      2.87497067      6.23298032
  C      2.02684446      2.20828782      9.62789541
  H      1.06262027      2.78967053      6.99688447
  H     -0.06159852      3.34038038     11.00439163
  H     -2.01140216      4.40001540      9.31714938
  H     -1.99207315      4.90405997      6.88652350
  H     -0.69540182      4.19272295      5.86308030
  H     -2.91180244      3.17567300      5.34360893
  H     -3.08178153      2.66324477      7.02488137
  H     -1.80430036      1.97044485      6.00677303
  H      1.79724682      1.27190240     10.13861631
  H      2.48615508      2.89902307     10.34833193
  H      2.69946787      2.01602309      8.79675500
  N      2.63251877      6.00852668      7.61843342
  C      2.25565276      6.15632250      8.88858385
  N      0.97384377      6.49406187      8.92072861
  C      0.51073341      6.56418358      7.64415904
  C      1.55287755      6.25405794      6.82415707
  C      3.96250655      5.66122287      7.17350431
  C      4.26268829      4.18844474      7.41347904
  C      0.20821360      6.76627247     10.10266080
  H      2.83710184      5.93987646      9.77055237
  H     -0.51982628      6.79757106      7.44965595
  H      1.59820516      6.14719427      5.76052486
  H      4.02424025      5.87530300      6.10553492
  H      4.68127997      6.28824763      7.70886754
  H      5.28034921      3.97173552      7.10112463
  H      3.57317516      3.58767397      6.82443237
  H      4.15818180      3.94958224      8.46828832
  H     -0.84902797      6.62138237      9.87352324
  H      0.36385351      7.79942265     10.41743671
  H      0.54372988      6.09960767     10.89685239
 Cl      4.78761617      8.77109169      0.56625175
 Cl      9.23224994      3.53032546      4.00502302
 Cl      1.78034076      3.44658347      5.04214647
 Cl      2.48509070      4.69687750     11.67252933
 Cl     -2.76690167      6.52160754      8.45202276

