62
Energy =    -96.25878618 au
  N      8.20332923      4.89602635      5.24007695
  C      7.35821125      3.85913234      5.13940312
  N      7.48936876      3.31844401      3.92202469
  C      8.33762928      4.11209304      3.19598102
  C      8.78604621      5.09112404      4.01698275
  C      8.29013464      5.77190524      6.37990415
  C      9.20887355      5.20709654      7.45603798
  C      6.65612095      2.28518341      3.37786275
  H      6.91233410      3.36860194      5.98219320
  H      8.55355048      3.91727412      2.16566354
  H      9.46161070      5.90097724      3.83271734
  H      8.65362530      6.74288370      6.03281578
  H      7.27527010      5.89473127      6.76729173
  H      9.25177238      5.89010717      8.29990350
  H     10.21516429      5.06528528      7.06577636
  H      8.82890922      4.25008253      7.80370194
  H      6.61993861      1.40822010      4.02869510
  H      7.03894006      1.98768798      2.40412876
  H      5.64248570      2.67474702      3.26202964
  N      8.77411366     -0.49332532      6.89557019
  C      7.50880143     -0.30328508      7.25130079
  N      7.33419066     -0.75230626      8.49202565
  C      8.54439665     -1.16395033      8.96858950
  C      9.44676824     -1.00559160      7.96594091
  C      9.31331288     -0.13291318      5.60870843
  C      9.88562430      1.28012372      5.64734220
  C      6.11315522     -0.61655099      9.23044248
  H      6.73699118     -0.02868774      6.54862486
  H      8.67170455     -1.53040605      9.96667177
  H     10.49566188     -1.21826952      7.93697929
  H     10.08157975     -0.86149942      5.33647488
  H      8.47992419     -0.20116609      4.90099876
  H     10.08627574      1.63404855      4.64059484
  H     10.80855206      1.31013259      6.22360114
  H      9.16551305      1.94263535      6.11968912
  H      5.95143681      0.44384628      9.44275684
  H      6.17853969     -1.17311296     10.16258354
  H      5.28171803     -0.98555255      8.63131148
  N      3.87833761      3.17757818      7.07773095
  C      4.61877550      3.93812392      7.87575248
  N      3.87766095      4.93273214      8.34453535
  C      2.62678122      4.81871508      7.82649096
  C      2.62825215      3.71659222      7.02807805
  C      4.37035747      2.04281069      6.33626201
  C      3.51173344      0.79955693      6.50461783
  C      4.28577806      5.98150984      9.23245637
  H      5.65035096      3.74389445      8.10974728
  H      1.84700475      5.48892305      8.14284789
  H      1.84824491      3.29778731      6.42796119
  H      4.42357074      2.32208623      5.28182645
  H      5.38223134      1.84457995      6.69260872
  H      3.99870114     -0.01560531      5.97517020
  H      2.51951892      0.93970623      6.08384434
  H      3.41216250      0.53690306      7.55585225
  H      5.08590077      5.63126609      9.88119409
  H      3.40238773      6.27794424      9.81794631
  H      4.63295024      6.84148139      8.65806590
 Cl     40.52522606      9.14391859     -2.43310323
 Cl      7.50767221      2.22327044      8.12657797
 Cl      6.18576267     -0.86350473      4.57129288
 Cl      1.24953050      6.38714290     10.28817172
 Cl      5.23700980      5.06709283      4.95968280
