62
Energy =    -96.27578187 au
  N      9.63797794      5.84909140      8.88325852
  C     10.00476294      4.67053797      8.37236625
  N      8.96830305      4.15106058      7.70079110
  C      7.88264545      4.96573335      7.90963399
  C      8.30632661      6.02727642      8.63329977
  C     10.49431791      6.71743102      9.64781859
  C     11.43546306      7.49655772      8.73470620
  C      8.95147614      2.82085355      7.16799529
  H     11.01507781      4.32854238      8.29123822
  H      6.91681740      4.73423550      7.51288247
  H      7.77997878      6.89886929      8.95967491
  H      9.85715974      7.40942679     10.20194666
  H     11.04933554      6.09644177     10.35784490
  H     11.99226813      8.23059949      9.31038166
  H     10.85402387      8.01162830      7.97318170
  H     12.13941138      6.83007569      8.24257002
  H      9.73574284      2.69987611      6.41911966
  H      7.98241909      2.61968318      6.71799102
  H      9.13676003      2.12194692      7.98897668
  N      9.00232700      6.63955655      1.53917037
  C      7.79632650      6.91173617      2.02648748
  N      7.91689118      7.83659545      2.97357546
  C      9.23356261      8.16859738      3.08703622
  C      9.91634014      7.41737200      2.18075867
  C      9.29491602      5.69375144      0.49281659
  C      9.41630462      6.39986103     -0.85337345
  C      6.86002901      8.36501673      3.78618401
  H      6.89504377      6.36174302      1.76663537
  H      9.57157970      8.86023625      3.83094005
  H     10.96449682      7.31712436      1.98346124
  H     10.24306009      5.20830694      0.75279711
  H      8.48085801      4.96781782      0.46582647
  H      9.64926248      5.67160867     -1.62439109
  H     10.21432466      7.13809573     -0.82335300
  H      8.48184790      6.89487990     -1.11086682
  H      6.55832103      9.35101682      3.42881225
  H      7.23066688      8.45745063      4.81184859
  H      6.00894118      7.68969936      3.75118480
  N      8.56680204      3.79363940      3.42033064
  C      9.81861509      4.14487606      3.70909502
  N      9.79080583      5.15301761      4.57612194
  C      8.49331234      5.44331347      4.86252153
  C      7.72241808      4.58686000      4.13848556
  C      8.14736248      2.75168862      2.51950069
  C      7.80051854      1.47830096      3.28452049
  C     10.93691167      5.85311758      5.07751514
  H     10.71453754      3.80326070      3.21982212
  H      8.24913986      6.25247963      5.52680411
  H      6.66137769      4.51711630      4.01139623
  H      7.26324604      3.12759355      1.98775297
  H      8.95750179      2.56555283      1.81270445
  H      7.49011738      0.70753031      2.58534690
  H      6.98069431      1.66443170      3.97383349
  H      8.65958813      1.11570903      3.84695647
  H     11.41458919      5.28206235      5.87456035
  H     10.60951358      6.81561597      5.46938437
  H     11.64687039      5.97830731      4.25841729
 Cl      5.63159347      4.67610106      1.56417837
 Cl     10.03258197      3.19175186     10.33081815
 Cl      8.87412384      8.30256736      6.43615837
 Cl     12.20529731      5.02229185      1.99564427
 Cl    -18.17862935     25.59804496     24.37536914
