62
Energy =    -96.28459577 au
  N     -0.21901549      7.52251296      4.32080172
  C     -0.77087448      7.39414024      3.11692747
  N      0.18458128      7.17021274      2.22433168
  C      1.37996675      7.14252299      2.87277541
  C      1.12691447      7.36603898      4.19263215
  C     -0.93095793      7.73776749      5.55690642
  C     -1.68053506      6.47765848      5.97217994
  C     -0.00925297      6.92374478      0.82506273
  H     -1.81911492      7.43742526      2.90111172
  H      2.28786140      6.96231261      2.32596066
  H      1.75843283      7.35388179      5.06089452
  H     -0.18974988      7.97025309      6.32357888
  H     -1.61655591      8.58083623      5.42280661
  H     -2.42230413      6.71643678      6.72917922
  H     -0.95885142      5.78496847      6.39434061
  H     -2.17129503      6.01855728      5.11837880
  H      0.96110143      6.69024272      0.38403403
  H     -0.43847257      7.79978856      0.33781717
  H     -0.69072448      6.07983269      0.71445059
  N      2.16311606      3.01862029      1.39632776
  C      1.42267676      2.18185961      2.11676693
  N      0.16157186      2.27139106      1.71174417
  C      0.09368596      3.18642814      0.70626853
  C      1.35510464      3.65383088      0.50406227
  C      3.58646579      3.21498021      1.48906772
  C      4.32708224      2.25645778      0.55958802
  C     -0.94728551      1.57498225      2.29405752
  H      1.73765332      1.57003484      2.95396564
  H     -0.83617750      3.45062519      0.24829345
  H      1.74783156      4.41982682     -0.13668267
  H      3.78455275      4.25437071      1.19802358
  H      3.88829454      3.04224501      2.52296341
  H      5.39731044      2.41942743      0.64825369
  H      4.03748916      2.43541587     -0.47296651
  H      4.10596836      1.22272281      0.81866582
  H     -1.35379456      0.84559692      1.59177842
  H     -1.72027531      2.30553083      2.53958095
  H     -0.59755501      1.06789470      3.19191914
  N      2.22670454      3.72975366      5.71672787
  C      1.11253464      3.20230872      6.19611478
  N      0.10939413      3.46906112      5.37173426
  C      0.60096657      4.17245226      4.31867515
  C      1.93231929      4.33843902      4.53669812
  C      3.52510082      3.67451105      6.33286475
  C      4.42934036      2.70334912      5.58177687
  C     -1.24255460      3.01062397      5.50713271
  H      1.03095473      2.66398191      7.11795597
  H     -0.04523033      4.50092896      3.52634534
  H      2.66989719      4.85918040      3.96368729
  H      3.93459073      4.68734613      6.34680336
  H      3.38728147      3.34739429      7.36448775
  H      5.32235437      2.49351687      6.16346982
  H      4.73185745      3.11878040      4.62364356
  H      3.89138594      1.77377522      5.40754882
  H     -1.83708232      3.45316104      4.70964000
  H     -1.64867218      3.30103718      6.47535949
  H     -1.25720785      1.92271385      5.42312295
 Cl     -2.16190664      4.78099139      2.50431459
 Cl      1.38224248      0.64131414      4.88357834
 Cl     39.10068469     -3.37384430     21.33360761
 Cl      1.55866087      6.22991740      7.21905020
 Cl      3.27422934      6.28375506      0.22395946
