#B3LYP/6-31+G(d) OPT FREQ

62, Energy =    -96.25634153 au

0 1
  N      3.83111603      3.22444389      3.32903052
  C      3.25079409      2.23778742      4.00913719
  N      1.93074931      2.37430589      3.93005507
  C      1.65599214      3.44724055      3.13536587
  C      2.84626537      3.97960475      2.75841883
  C      5.24431792      3.40014629      3.11949372
  C      5.65056825      2.83643014      1.76279108
  C      0.94666171      1.49539092      4.48901330
  H      3.76440263      1.50010878      4.58748395
  H      0.64341704      3.75352271      2.95815806
  H      3.07012912      4.84062946      2.16426517
  H      5.46720715      4.46700686      3.20422628
  H      5.76990894      2.86258589      3.91154502
  H      6.73247250      2.84426576      1.65986606
  H      5.21262068      3.41933346      0.95620287
  H      5.28734415      1.81226928      1.69221926
  H      0.84547449      0.61577302      3.85185085
  H     -0.00210854      2.03630046      4.54670683
  H      1.25567836      1.17350953      5.48227996
  N      6.38166871      4.78003067      7.55034967
  C      7.01418902      5.49704007      6.62754889
  N      8.28629895      5.63233009      6.98369702
  C      8.48178785      4.98248565      8.16197850
  C      7.28412768      4.44556565      8.51968774
  C      4.99004780      4.40162207      7.49116268
  C      4.84040703      2.90070279      7.27524549
  C      9.31911156      6.33390748      6.27317026
  H      6.51185203      5.91143961      5.76398679
  H      9.46578931      4.98346617      8.61649849
  H      7.01318222      3.86624564      9.37722870
  H      4.50436093      4.69929428      8.42438268
  H      4.54631369      4.95380459      6.65524173
  H      3.78780441      2.65214091      7.18246001
  H      5.26176386      2.33776681      8.10591714
  H      5.34626188      2.60243908      6.36117719
  H      9.46608355      5.89157985      5.28842173
  H     10.24048036      6.24755514      6.86393476
  H      9.04946481      7.38256987      6.15421286
  N      0.82589670      6.71831813      5.78625363
  C      1.69498593      7.71269492      5.64863099
  N      1.03815082      8.86875587      5.67348116
  C     -0.28779489      8.60748157      5.83276402
  C     -0.42037208      7.25369157      5.90467712
  C      1.15560731      5.31967185      5.87814678
  C      1.21010343      4.88517468      7.33918024
  C      1.59645622     10.18498156      5.54669780
  H      2.75391629      7.57727523      5.50654602
  H     -0.98766209      9.42021351      5.93143543
  H     -1.28527660      6.62851411      5.98944478
  H      0.37554815      4.74786709      5.35401105
  H      2.12468511      5.17503946      5.39870646
  H      1.47127708      3.83241397      7.39184677
  H      0.23719613      5.01832447      7.80567129
  H      1.95040164      5.46392019      7.89011352
  H      2.52665284     10.25263792      6.10793337
  H      0.85603598     10.89934422      5.93524060
  H      1.79552394     10.41207565      4.49857262
 Cl     -1.06596617     11.70312126      6.63831306
 Cl      4.56614810      6.32135914      4.77306211
 Cl     -1.44717723      3.85333858      4.50977305
 Cl      3.67027966      0.08203438      2.50676880
 Cl     11.56739522      5.61369747      8.57677111

