62
Energy =    -96.15569174 au
  N     11.05713434      7.77904233      3.39607950
  C     10.21790341      6.79157604      3.69490679
  N     10.18078594      6.65574274      5.02231080
  C     11.01389132      7.57378054      5.57969201
  C     11.55847349      8.28291701      4.55539040
  C     11.38570393      8.32431716      2.09622545
  C     10.88110706      7.46852112      0.95395765
  C      9.41497526      5.70819788      5.78782770
  H      9.65191572      6.21077438      2.98247003
  H     11.11439087      7.64074336      6.65105252
  H     12.21026408      9.12625961      4.56200827
  H     10.95677261      9.33503681      2.06974787
  H     12.47697385      8.42573940      2.05429761
  H     11.11827879      7.94583646      0.00151230
  H      9.80239070      7.33246312      0.99977011
  H     11.33629222      6.47915859      0.97437629
  H      8.36948123      5.73213111      5.48117718
  H      9.50639901      5.97559487      6.84455266
  H      9.80119449      4.70365215      5.63026160
  N      6.23387151     10.68740257      8.17223687
  C      7.39496812     11.15177711      7.53962232
  N      8.43902916     10.37475011      8.00337096
  C      7.91889191      9.33744095      8.70981894
  C      6.57912977      9.49133145      8.79042692
  C      4.90532618     10.99398286      7.71927671
  C      4.46718476     10.16046456      6.50839990
  C      9.82716078     10.56655209      7.71142232
  H      7.51972683     12.19742502      7.32633033
  H      8.54931077      8.54130217      9.05392690
  H      5.84221166      8.88884018      9.27999257
  H      4.21743629     10.81355927      8.55286677
  H      4.86914315     12.05886589      7.46490938
  H      3.44224785     10.40382291      6.24019681
  H      4.52899187      9.09868959      6.74265989
  H      5.11053155     10.36661532      5.65737251
  H      9.97988625     10.78143281      6.64811603
  H     10.35722710      9.65477284      7.97946324
  H     10.22735325     11.40540842      8.29318768
  N      6.37624269      7.33153997      2.74337871
  C      6.64899580      7.64509552      4.03162017
  N      7.54342644      8.65603487      4.05421403
  C      7.82363773      8.99180995      2.75663000
  C      7.10293011      8.16785907      1.94989672
  C      5.52807693      6.26585954      2.28521356
  C      4.20905919      6.80787756      1.73899267
  C      8.08593897      9.32017784      5.18914093
  H      6.24946273      7.14831535      4.89268990
  H      8.53346816      9.77145685      2.54830277
  H      7.09040773      8.08579206      0.87915983
  H      6.08852663      5.72179073      1.51436436
  H      5.34436802      5.58484952      3.12102328
  H      3.58132258      5.98538870      1.40805501
  H      4.38917097      7.46467305      0.89227722
  H      3.67870102      7.36515214      2.51142159
  H      7.38699273     10.06110497      5.61744402
  H      8.97839733      9.86246458      4.85812758
  H      8.34217195      8.61020326      5.97509508
 Cl    -14.09668465     -4.94897602     19.21062975
 Cl     10.40179037     11.06281238      3.63240796
 Cl      8.36694479      5.23421407      1.12274281
 Cl     10.34768894      7.06718752      8.73763316
 Cl    -14.79753765     -2.51622118     19.87881602
