62
Energy =    -96.25119560 au
  N      3.45329958      3.39644063      4.89435607
  C      4.59362594      3.82344477      4.36772025
  N      5.60413016      3.21991957      4.97969680
  C      5.09713854      2.38769217      5.93407397
  C      3.74096109      2.50023032      5.87692156
  C      2.12759759      3.82278387      4.52348031
  C      1.81193508      3.41618388      3.08957536
  C      6.98881300      3.44076477      4.67860536
  H      4.71281105      4.49910861      3.54162654
  H      5.73425753      1.80631682      6.57538823
  H      2.94455100      2.04256287      6.44041443
  H      1.43148184      3.35300348      5.22981112
  H      2.07639208      4.90946738      4.63300786
  H      0.83146313      3.79250678      2.81011727
  H      1.80239550      2.33195874      3.00530067
  H      2.55531012      3.81464018      2.40127390
  H      7.08744325      3.60096814      3.60198749
  H      7.56974432      2.57981899      5.00173778
  H      7.34539320      4.32843435      5.20457526
  N      6.49107536      6.45181339      8.09874215
  C      5.40074323      5.78727474      8.48914181
  N      5.67704833      4.48978360      8.55656226
  C      6.96042908      4.30210968      8.13944297
  C      7.46763818      5.52633188      7.84406697
  C      6.48001358      7.86033194      7.78035788
  C      7.84071319      8.38646212      7.36095862
  C      4.80394932      3.43759498      8.99927588
  H      4.47509985      6.24062863      8.77763288
  H      7.38134608      3.30376890      8.09989718
  H      8.43733704      5.79472239      7.48363869
  H      5.74796874      7.98051572      6.96998712
  H      6.11537367      8.40565803      8.65760498
  H      7.76242733      9.45236951      7.16400185
  H      8.17429288      7.89787049      6.44987181
  H      8.58101724      8.23148640      8.14465196
  H      4.51590593      3.60157853     10.03872900
  H      5.34736911      2.49529674      8.91326931
  H      3.90549488      3.39860266      8.38409143
  N      5.37435100      7.16094847      2.62747083
  C      5.59202774      7.07287248      1.32294672
  N      4.43815039      6.88586340      0.70000523
  C      3.45088552      6.84070661      1.63915824
  C      4.03877541      7.01652492      2.85072344
  C      6.37344644      7.41655137      3.62942234
  C      6.63915407      8.91884164      3.71324848
  C      4.30308025      6.81027442     -0.72263477
  H      6.54420017      7.14520492      0.84199667
  H      2.42331779      6.68657488      1.37957329
  H      3.63967394      7.02252948      3.84575342
  H      5.99483705      7.02203940      4.57661604
  H      7.27761490      6.87468188      3.34100346
  H      7.55578770      9.12044908      4.26183866
  H      5.81169410      9.41861423      4.21190667
  H      6.72675956      9.32894923      2.70840563
  H      3.25198534      6.71789610     -0.98906206
  H      4.85839869      5.94758813     -1.09449532
  H      4.72243595      7.72847617     -1.14351359
 Cl      7.42490619      1.16798523      8.30448419
 Cl      6.11366591      4.33074913      1.48567802
 Cl      5.81457156      9.67743985      0.19097451
 Cl      0.63369406      2.01814456      6.98907887
 Cl      4.21515082      6.28102347      6.16570619
