62
Energy =    -96.25654742 au
  N      7.56640568      4.77079867      5.96257490
  C      6.48778063      4.12702908      5.52707063
  N      5.41081946      4.86285811      5.77186187
  C      5.80727531      5.99934846      6.41412394
  C      7.15888486      5.94157016      6.53096367
  C      8.91260415      4.29034143      5.82233901
  C      9.50722895      4.75140119      4.49572869
  C      4.07769651      4.47952279      5.41781898
  H      6.48902833      3.19602916      5.00261874
  H      5.11274264      6.74994987      6.73277479
  H      7.85073058      6.62944456      6.97281195
  H      9.50148879      4.65503702      6.66881003
  H      8.86731037      3.20025211      5.87228666
  H     10.42085004      4.20402598      4.27570152
  H      9.72849777      5.81665394      4.52100556
  H      8.78282326      4.57696672      3.70212608
  H      4.06134523      4.22975089      4.35554225
  H      3.39342141      5.30292913      5.61173995
  H      3.78844588      3.60659919      6.00497299
  N      3.49309800      7.50423586      2.24376037
  C      2.24923015      7.96622041      2.27918571
  N      1.40973723      6.93880704      2.21351445
  C      2.13716950      5.78788905      2.13926814
  C      3.45137694      6.14261317      2.15727780
  C      4.67285503      8.33528341      2.29181228
  C      5.47890342      8.05925758      3.55395684
  C     -0.02445453      6.99873812      2.19758557
  H      2.01536703      9.02622865      2.33001453
  H      1.63054947      4.84268097      2.04683899
  H      4.34944857      5.55295927      2.13904001
  H      5.28442423      8.12048683      1.41113586
  H      4.32695018      9.37292658      2.26032553
  H      6.32795481      8.73595365      3.59949478
  H      5.85019540      7.03706057      3.54886330
  H      4.86052873      8.22023281      4.43322166
  H     -0.39949650      7.38158341      3.14572309
  H     -0.40234613      5.98386790      2.02594592
  H     -0.35774274      7.65664983      1.39737077
  N      3.06705708      1.55319094      3.32399273
  C      3.72140309      0.88775731      4.27629902
  N      5.03255674      1.01635077      4.07829519
  C      5.21856200      1.72150064      2.92547667
  C      3.99138716      2.06435382      2.45828666
  C      1.63492767      1.66523238      3.20328106
  C      1.03648246      2.52053870      4.31372097
  C      6.03469362      0.37144536      4.87820166
  H      3.27901125      0.43781341      5.13891141
  H      6.18750105      1.95431674      2.53670402
  H      3.71098666      2.62827960      1.59352257
  H      1.40053365      2.13150900      2.24481470
  H      1.21058973      0.65866224      3.22112643
  H      0.01735254      2.76761142      4.03465151
  H      1.58977616      3.45215995      4.40822328
  H      1.04247934      2.00132872      5.26927891
  H      6.99828990      0.44367658      4.37775355
  H      5.75328374     -0.67713145      4.98621093
  H      6.10077929      0.84155852      5.86540070
 Cl      6.48666195      4.73702160      2.78845061
 Cl      6.35754563      2.49391185      7.58349513
 Cl      3.51940430     -1.60232227      3.59662090
 Cl      2.54419985     11.10883144      2.32639830
 Cl     -0.47128654      3.79892974      1.53774557
