62
Energy =    -96.26870356 au
  N      1.83672396      7.12667705      0.85973596
  C      0.96477277      7.22677748      1.86446559
  N     -0.26556089      7.06187415      1.38320479
  C     -0.18497115      6.84272097      0.04337883
  C      1.13329244      6.88122563     -0.28717734
  C      3.26972701      7.20641427      0.99114864
  C      3.89959594      5.81931614      0.90904564
  C     -1.50053023      7.09794682      2.11593683
  H      1.25406107      7.45459884      2.87775205
  H     -1.09604193      6.69313308     -0.52665196
  H      1.61455576      6.75935907     -1.23446075
  H      3.65879454      7.84662207      0.19529030
  H      3.48183051      7.66111825      1.96311234
  H      4.97913988      5.90251031      0.98804842
  H      3.65375494      5.33830328     -0.03613764
  H      3.54170669      5.19571480      1.72474865
  H     -2.31328894      6.95325025      1.39077660
  H     -1.61465710      8.05799865      2.61755842
  H     -1.52288108      6.30178870      2.85970368
  N      5.79638413      7.01362659      6.56793296
  C      5.94911353      6.18212568      7.59829633
  N      5.12250482      6.54522332      8.56914826
  C      4.42152500      7.63583082      8.15850653
  C      4.84147580      7.93002401      6.89812873
  C      6.48099314      6.91399334      5.30310243
  C      5.66611961      6.10080520      4.30341241
  C      4.97841222      5.87270999      9.82683288
  H      6.53110872      5.27488415      7.61998691
  H      3.65097659      8.06171847      8.77263300
  H      4.50469795      8.67391817      6.20523884
  H      6.63701082      7.92464616      4.91755142
  H      7.44992024      6.43999003      5.48073800
  H      6.22504466      5.99406400      3.37831821
  H      4.73066531      6.61337647      4.09267648
  H      5.45417661      5.11452806      4.70660918
  H      5.18526648      4.81372734      9.67087345
  H      3.95980944      6.03184011     10.18559260
  H      5.68093807      6.27570399     10.55735777
  N      2.34474002      4.40675806      8.07425064
  C      1.37055987      5.31162651      8.12628441
  N      1.50253752      6.14463846      7.09870047
  C      2.59575789      5.76566115      6.37583102
  C      3.12207930      4.67148187      6.98414852
  C      2.56806009      3.32650443      9.00114769
  C      1.64060036      2.15202989      8.70644939
  C      0.74625337      7.34418983      6.88560036
  H      0.59420119      5.34824002      8.86071803
  H      2.89239772      6.32101360      5.50707484
  H      4.00402857      4.08889849      6.79326241
  H      3.61332704      3.02182920      8.89067838
  H      2.40107813      3.70304454     10.01263264
  H      1.83321684      1.34905525      9.41170602
  H      1.81728478      1.77694308      7.70103630
  H      0.59699948      2.44950529      8.79236455
  H     -0.28842861      7.11457270      6.62799181
  H      1.21271166      7.90816782      6.07950269
  H      0.76727780      7.92764181      7.80781298
 Cl      1.87176694      7.09226595     10.14096481
 Cl     13.07961093    -32.95417704     -6.38120359
 Cl     -3.26121745      6.59558880     -0.60425985
 Cl      5.87770193      3.12177911      7.95838627
 Cl      2.92234086      8.32242336      4.17724657
