62
Energy =    -96.27305585 au
  N      4.82349334      8.01853928      7.08217317
  C      5.41124371      8.62727129      8.10505559
  N      6.47609730      7.92225848      8.48020466
  C      6.55004878      6.81947382      7.67859459
  C      5.51794294      6.88032242      6.79715984
  C      3.69370894      8.50662491      6.33252448
  C      4.13720365      9.03286677      4.97427898
  C      7.27962386      8.21155371      9.63122781
  H      5.08476277      9.54142134      8.55542586
  H      7.31824582      6.08321648      7.79216781
  H      5.26494060      6.24029719      5.96251831
  H      2.98626058      7.68987793      6.18373315
  H      3.19702544      9.29315952      6.90095189
  H      3.26263123      9.42635661      4.46729561
  H      4.56908676      8.23188536      4.38051017
  H      4.86801868      9.83137765      5.08880650
  H      7.99826538      7.41085108      9.78766317
  H      6.60397474      8.28363042     10.48991561
  H      7.80449770      9.15973089      9.50754279
  N      0.82170044      6.74718606      8.57144105
  C      0.15160673      5.62265450      8.33742969
  N      0.98412652      4.58509949      8.44018104
  C      2.21934707      5.06968919      8.75661995
  C      2.11833025      6.42412839      8.83400943
  C      0.26462200      8.07800516      8.55994267
  C      0.59570708      8.82898875      9.84219196
  C      0.59933239      3.20886030      8.29785836
  H     -0.87888838      5.51643065      8.03880623
  H      3.06964603      4.43606153      8.90077101
  H      2.86291281      7.14533427      9.12356761
  H      0.64449517      8.63000612      7.68546893
  H     -0.81645410      7.97772739      8.44154769
  H      0.22124968      9.84505820      9.76349702
  H      1.66888377      8.87362838     10.00668237
  H      0.13442384      8.34902590     10.70436526
  H      1.37183687      2.65181044      7.77052311
  H     -0.34024523      3.17954299      7.73599911
  H      0.44389509      2.75555107      9.27848078
  N      1.53708985      5.25373086      4.70657262
  C      0.27831848      5.51010325      5.06097831
  N     -0.04973323      6.71882713      4.62416646
  C      1.01894385      7.25043299      3.97156390
  C      2.01881290      6.32816067      4.02293703
  C      2.28371976      4.04997276      4.97834562
  C      1.60883412      2.83387438      4.35693313
  C     -1.29258915      7.38663413      4.87359155
  H     -0.39822000      4.86327656      5.60631326
  H      0.99864420      8.24375071      3.57736820
  H      3.03417611      6.33609347      3.66934128
  H      3.29190366      4.20306639      4.57327186
  H      2.36331079      3.92474111      6.06108752
  H      2.19175272      1.94270977      4.57199042
  H      1.54656257      2.95003377      3.27779646
  H      0.60456496      2.70271566      4.75443269
  H     -1.81611627      7.57680116      3.93641919
  H     -1.06226962      8.34417352      5.35323527
  H     -1.90682984      6.76167600      5.51773851
 Cl     -2.13243558      4.12246597      6.69060296
 Cl      5.16763860      5.35174888      3.95170840
 Cl     39.90121710     -8.17961081    -31.10280579
 Cl      4.20084020      8.21381395     10.58832261
 Cl      0.74114052      9.77128933      5.78511214
