#B3LYP/6-31+G(d) OPT FREQ

62, Energy =    -96.25843198 au

0 1
  N      2.46685780      7.38162214      2.98986970
  C      1.30800482      7.09173331      2.40862404
  N      0.31665913      7.38639901      3.24219995
  C      0.85751446      7.88043612      4.39133582
  C      2.21023145      7.87341767      4.23125483
  C      3.78798602      7.23045654      2.42699769
  C      4.41117516      8.59285947      2.15959224
  C     -1.08132932      7.18740781      2.98531976
  H      1.13866453      6.62101654      1.44531334
  H      0.24521690      8.16205536      5.22391189
  H      2.99605080      8.13843125      4.90673658
  H      4.38597031      6.66229222      3.14380153
  H      3.69503450      6.65630633      1.50432026
  H      5.43315170      8.48667973      1.80167713
  H      4.44464058      9.18567073      3.07065226
  H      3.83754049      9.13457989      1.40960921
  H     -1.57547707      8.14819917      2.83319074
  H     -1.53778250      6.68473794      3.84313038
  H     -1.17604625      6.57858246      2.08421938
  N      0.95666342      4.09105750      6.62304692
  C      0.63842833      4.59984701      5.43899822
  N      0.24653497      3.62444958      4.62766602
  C      0.29428928      2.45577027      5.32597831
  C      0.74764140      2.74602056      6.57262934
  C      1.51483243      4.81020097      7.74164390
  C      0.93009227      6.21131848      7.85514185
  C     -0.30778878      3.78573551      3.31424784
  H      0.73177884      5.62948307      5.17470030
  H      0.00757146      1.52052833      4.89105678
  H      0.93495180      2.10796616      7.41199473
  H      1.31077989      4.22428085      8.64184518
  H      2.59736115      4.87364262      7.58194078
  H      1.06950078      6.59325538      8.86303588
  H     -0.13162876      6.19049072      7.61874504
  H      1.43062288      6.87548835      7.15694697
  H     -1.28028821      4.27291322      3.39937398
  H     -0.43453091      2.81140986      2.85057090
  H      0.32676970      4.39797860      2.67384040
  N      8.54198209      7.45099286      4.97858178
  C      8.54159536      6.91366365      6.19449237
  N      7.34885859      6.37715971      6.42107123
  C      6.56237014      6.57534182      5.32351362
  C      7.31793479      7.24901281      4.41401120
  C      9.65524635      8.09003110      4.32181134
  C     10.73238195      7.06573925      3.98306939
  C      6.97869356      5.70669661      7.63440707
  H      9.34661214      6.87849609      6.92070480
  H      5.55156096      6.20721691      5.27999341
  H      7.11259013      7.62660425      3.42740015
  H      9.26329388      8.55350864      3.40694961
  H     10.06300128      8.85749362      4.98487035
  H     11.56470045      7.56056811      3.49032816
  H     10.32916576      6.31532778      3.30750737
  H     11.09393810      6.57542466      4.88513786
  H      6.62148052      4.70246619      7.40824730
  H      6.17921902      6.25356630      8.13529968
  H      7.86117609      5.66245977      8.27784323
 Cl     -0.19298229      5.37480485      0.25282642
 Cl     10.16287638      6.18996733      8.82549949
 Cl      7.86308029      9.01955497      1.65522344
 Cl     -1.90031338      5.55907977      5.90453395
 Cl      3.46153282      5.25548487      5.20151834

