#B3LYP/6-31+G(d) OPT FREQ

62, Energy =    -96.26224039 au

0 1
  N      7.93554166      2.20640062      4.84187428
  C      8.08159658      3.08195746      3.85238978
  N      8.16743444      4.30174764      4.37068019
  C      8.08075745      4.20472804      5.72617861
  C      7.93873534      2.88432954      6.02247712
  C      7.85265567      0.77420159      4.71437202
  C      9.22150542      0.13814925      4.93458714
  C      8.30373402      5.52750724      3.63834676
  H      8.06408156      2.85875964      2.78797487
  H      8.17940559      5.06885917      6.35201794
  H      7.77177711      2.38068064      6.95245914
  H      7.13635520      0.42446201      5.46876421
  H      7.48646119      0.54444885      3.71289889
  H      9.13901681     -0.94137517      4.84724492
  H      9.59605687      0.37801862      5.92710270
  H      9.93291394      0.49698415      4.19260328
  H      8.69645494      5.31348945      2.64750422
  H      8.97185233      6.19258139      4.19486530
  H      7.32849823      6.00698069      3.53563459
  N      3.92141381      0.18872467      3.79582248
  C      3.77728767     -0.01937932      2.48994379
  N      4.43900479      0.93046541      1.83730224
  C      5.01104098      1.77063397      2.74457679
  C      4.68467342      1.30244611      3.97955573
  C      3.39269570     -0.62572789      4.86545258
  C      3.52238812     -2.10907042      4.55084083
  C      4.56830080      1.05958689      0.41455616
  H      3.20074247     -0.82337698      2.02476685
  H      5.63408728      2.58140346      2.42205140
  H      4.95443515      1.62573939      4.96811258
  H      3.95450666     -0.36150674      5.76769514
  H      2.33850847     -0.36972158      5.01481749
  H      3.13318850     -2.68876478      5.38361035
  H      4.56759661     -2.37150601      4.40462303
  H      2.96505642     -2.36839337      3.65272758
  H      5.55200086      1.48364799      0.19797919
  H      3.80104660      1.72957105      0.02277627
  H      4.45539974      0.08290730     -0.04970528
  N      7.59778110     10.15315366      5.20305653
  C      6.89208000     11.22181869      5.55733319
  N      6.54283229     11.10222878      6.83231230
  C      7.04413760      9.92256096      7.30415091
  C      7.70739234      9.32290993      6.28001263
  C      8.17913712      9.90602483      3.90550219
  C      9.69831040      9.83628162      3.99643956
  C      5.77277109     12.07527645      7.55410079
  H      6.62704314     12.10075990      4.97177613
  H      6.89573145      9.59688151      8.31279876
  H      8.29723943      8.41336504      6.24763405
  H      7.79608731      8.95357772      3.52893886
  H      7.85786116     10.71311490      3.24270018
  H     10.11501705      9.66356994      3.00863348
  H      9.99378744      9.01338144      4.64615828
  H     10.09925229     10.76688923      4.39081783
  H      6.31144558     12.39478760      8.44604632
  H      4.81056480     11.65501425      7.84838303
  H      5.61442467     12.93050247      6.88541536
 Cl      2.01346297     -2.34049302      1.26183061
 Cl      5.79838681     14.07325914      4.92989710
 Cl      7.52226530      2.77454418      0.73793094
 Cl      9.96654788      7.06387788      6.09546904
 Cl      5.59930859      0.83174394      7.14278217

