62
Energy =    -96.27248727 au
  N      8.85965006      5.43206001      4.61955479
  C      9.30847085      4.62882899      3.66166280
  N      8.40251800      3.68272196      3.44059094
  C      7.34894599      3.88969474      4.28156930
  C      7.63376603      4.99396856      5.02319687
  C      9.55696099      6.60405027      5.09141125
  C      8.74626542      7.85933214      4.79863415
  C      8.48338948      2.61799749      2.48229135
  H     10.28159629      4.76541717      3.19055963
  H      6.47723672      3.26738288      4.24092058
  H      7.04209663      5.51406582      5.75856995
  H      9.71349752      6.50727712      6.16861112
  H     10.52405412      6.62483127      4.58012160
  H      9.28227305      8.73302808      5.15906936
  H      7.77850065      7.81197681      5.29312888
  H      8.59258071      7.96489339      3.72784955
  H      8.93521298      1.73281216      2.93272263
  H      9.08797940      2.93278239      1.63500249
  H      7.46867723      2.37267215      2.15814672
  N      2.45986320      4.43217277      5.37675542
  C      3.55153311      5.11167229      5.03756437
  N      3.65306245      5.12554181      3.71648850
  C      2.60193420      4.43184288      3.19788466
  C      1.84593546      3.99677441      4.24098633
  C      2.00335653      4.18055926      6.72059294
  C      0.61754450      4.76612111      6.95026935
  C      4.72190203      5.72601669      2.97428257
  H      4.24200589      5.62062002      5.70513892
  H      2.48779443      4.27003086      2.14681329
  H      0.92328440      3.43912437      4.26821728
  H      1.96416643      3.09829760      6.87256409
  H      2.73766712      4.61767141      7.40027297
  H      0.31998861      4.60194987      7.98175959
  H     -0.10361058      4.27171123      6.30364879
  H      0.61548368      5.83458529      6.74937085
  H      4.32259362      6.41795762      2.23225709
  H      5.27752453      4.93555076      2.46573339
  H      5.37115777      6.25437906      3.66741185
  N      1.15386025     -0.92146082      4.23029055
  C      2.23091156     -1.53181636      3.75220617
  N      3.14065453     -0.61037629      3.44666206
  C      2.62392274      0.61820958      3.73739622
  C      1.37181584      0.42469621      4.23127605
  C     -0.05056244     -1.59177504      4.65641296
  C     -1.25479039     -1.08712379      3.87159527
  C      4.45410760     -0.84361941      2.91521844
  H      2.30615557     -2.61446737      3.66344353
  H      3.18178759      1.51320969      3.54372656
  H      0.61955786      1.12721567      4.55327471
  H      0.11220547     -2.66369885      4.50458498
  H     -0.19864025     -1.39438483      5.72205779
  H     -2.14565562     -1.62418995      4.18586673
  H     -1.10703425     -1.25164601      2.80684068
  H     -1.40668702     -0.02439231      4.04819512
  H      4.86976426      0.11364902      2.59115741
  H      4.40090191     -1.53162072      2.07183162
  H      5.10098308     -1.27694954      3.68048547
 Cl      5.56704555      7.04532768      6.57149695
 Cl     -1.08873494      2.54460271      4.87091332
 Cl      5.11150697      2.45570980      2.26851822
 Cl     12.19413019      5.62621549      2.97439327
 Cl      1.62834939     -4.60123596      3.94040290
