#B3LYP/6-31+G(d) OPT FREQ

62, Energy =    -96.26744266 au

0 1
  N      4.42502573      4.85184453      3.62306389
  C      4.31058751      4.24639489      4.80448320
  N      5.52783943      3.96274045      5.26342450
  C      6.44253846      4.32698985      4.31814794
  C      5.75482934      4.88743909      3.29331790
  C      3.33571387      5.28505297      2.78901890
  C      3.26683581      6.80524125      2.70901710
  C      5.84777537      3.25195255      6.46635636
  H      3.40269842      4.16345357      5.36327983
  H      7.49217364      4.17409410      4.49229892
  H      6.09633908      5.29211715      2.36278176
  H      3.47250124      4.84840867      1.79379499
  H      2.41920495      4.87625699      3.21626035
  H      2.41101003      7.10451302      2.10961309
  H      4.16920005      7.20531841      2.25157467
  H      3.16013396      7.23453741      3.70451663
  H      6.92508707      3.32710281      6.62694388
  H      5.55553025      2.20611669      6.35310558
  H      5.31023246      3.68154019      7.31140347
  N      8.84154657      7.72027114      6.44816984
  C      9.28057347      8.96553194      6.61325996
  N      9.99260686      9.31375894      5.54736646
  C     10.00454579      8.27036445      4.67456158
  C      9.27811281      7.26770689      5.23979666
  C      8.03964279      6.93296167      7.35162650
  C      6.58256334      6.89950962      6.90736459
  C     10.66403709     10.56709785      5.35966726
  H      9.09039332      9.63544298      7.44003026
  H     10.47010409      8.35336639      3.71383040
  H      9.09693599      6.25409497      4.93857519
  H      8.43931579      5.91070724      7.32372964
  H      8.13391475      7.35517200      8.35358372
  H      6.01451779      6.25598096      7.57134864
  H      6.50842535      6.49720777      5.90145389
  H      6.13017111      7.88594870      6.92016260
  H     10.54561322     10.87450638      4.31903007
  H     11.72803290     10.45427647      5.57522367
  H     10.23467498     11.29947723      6.04233876
  N      5.92286012     10.58193178      5.97790018
  C      5.70961222      9.65659903      5.04813035
  N      6.65710246      9.75775846      4.12102835
  C      7.49138804     10.77788517      4.46546358
  C      7.03443516     11.29526768      5.63715430
  C      5.09114639     10.78799981      7.14059631
  C      5.84231675     10.48342873      8.43148242
  C      6.82686532      8.93369513      2.95756738
  H      4.86358127      8.97397463      5.07439596
  H      8.32361505     11.03168105      3.83443863
  H      7.45474584     12.04689032      6.27555552
  H      4.76346000     11.83196584      7.14215963
  H      4.22098393     10.13397806      7.02815683
  H      5.25027770     10.81322671      9.28091279
  H      6.80299705     10.99594159      8.45255889
  H      6.01479125      9.41551409      8.53061489
  H      6.88075813      7.88412154      3.24622204
  H      7.76084521      9.23096350      2.47020209
  H      5.99214706      9.07348055      2.27010630
 Cl      9.06501032     11.79977904      8.19649662
 Cl      3.44956693      1.96534616      4.01230924
 Cl      9.75723518     10.39673630      2.07910077
 Cl      9.22507325      4.05835888      6.18852352
 Cl      3.05143189      8.21378954      5.88888947

