62
Energy =    -96.29707625 au
  N      5.08534794      7.41412426      8.42562652
  C      5.26673470      7.79053630      7.16403839
  N      4.78080400      9.01615673      7.00350082
  C      4.28562128      9.43672051      8.20122480
  C      4.47997494      8.42909749      9.09667893
  C      5.45309059      6.13840502      8.98305114
  C      6.82676130      6.20955622      9.64050429
  C      4.72498755      9.74563599      5.77071741
  H      5.62343348      7.14421722      6.37549694
  H      3.81247285     10.39128583      8.30356813
  H      4.17382778      8.31044212     10.11750546
  H      4.68741049      5.88269838      9.72604989
  H      5.45585258      5.40939004      8.17119996
  H      7.08109827      5.23790775     10.05316840
  H      6.82080065      6.93625259     10.44956563
  H      7.58840235      6.49144958      8.91487630
  H      5.47088612     10.54206352      5.76096684
  H      3.72641023     10.19061263      5.67054888
  H      4.90642298      9.06188532      4.94569895
  N      0.94921143      7.50061794      8.39247214
  C      1.03378256      6.23254712      8.76846809
  N      1.93630426      5.61738682      8.01916246
  C      2.44797878      6.51966976      7.13550751
  C      1.82970767      7.70645556      7.37349231
  C      0.11896405      8.50978761      8.99557165
  C      0.82018695      9.11753686     10.20752754
  C      2.32123998      4.24329658      8.14024813
  H      0.46040233      5.77172081      9.54541625
  H      3.20814889      6.24317144      6.42935681
  H      1.91534196      8.66704671      6.89858798
  H     -0.07549016      9.27676633      8.24275909
  H     -0.82410176      8.04053076      9.28556892
  H      0.11673987      9.69309692     10.80275660
  H      1.62566685      9.77077034      9.88196289
  H      1.24803484      8.32791539     10.82101900
  H      2.67270094      4.06373083      9.15778535
  H      3.11794306      4.03597089      7.42896047
  H      1.46170016      3.60303933      7.93595531
  N      1.64861633      5.82092036      4.19013009
  C      0.48293182      6.23716923      4.67576763
  N      0.45456433      7.56311124      4.64354739
  C      1.62454509      8.01042762      4.11156452
  C      2.37601710      6.91308041      3.82361050
  C      2.08314150      4.45166366      4.08670367
  C      1.84578185      3.90638920      2.68242873
  C     -0.60510571      8.37894438      5.16066785
  H     -0.26265533      5.63570552      5.18199253
  H      1.83843546      9.05844668      4.04477081
  H      3.37511594      6.81694789      3.45199080
  H      3.15060776      4.42924150      4.33248524
  H      1.52645856      3.86735728      4.82126885
  H      2.18879203      2.87729544      2.62750375
  H      2.39549013      4.49281294      1.94966747
  H      0.78620987      3.93591962      2.43390867
  H     -1.31925569      8.62729787      4.37385288
  H     -0.16953300      9.30061734      5.55148587
  H     -1.11238555      7.82193192      5.94818893
 Cl     -1.17981177      5.41825386      7.11361602
 Cl      5.11123678      5.41896831      5.10250469
 Cl     53.70765967    -13.63438745    -43.87828813
 Cl      2.85822671      6.29756296     10.99775599
 Cl      1.62313598     10.81127231      5.97428706
