62
Energy =    -96.25591333 au
  N      8.75147571      5.41906927      0.78264474
  C      9.77633905      4.62211432      0.50354951
  N     10.89831167      5.19416180      0.92401203
  C     10.57762670      6.40732837      1.45888668
  C      9.23004530      6.54960641      1.37904498
  C      7.36361394      5.14552955      0.51890591
  C      6.63323011      4.85143564      1.82407536
  C     12.20312951      4.64526417      0.71434831
  H      9.70575774      3.63279628      0.10446695
  H     11.33344998      7.06629367      1.83599144
  H      8.56974404      7.31948048      1.73341991
  H      6.92521328      6.01956342      0.03022858
  H      7.31884658      4.29702904     -0.16751682
  H      5.62365538      4.50265097      1.62105489
  H      6.58495347      5.75648084      2.42508411
  H      7.17681239      4.08955042      2.37722753
  H     12.33452934      3.75524573      1.33267045
  H     12.95875115      5.38520989      0.97033590
  H     12.28095864      4.37957931     -0.34312484
  N     10.21929358      5.51624980      6.54359887
  C     10.22526676      6.13663636      5.36586345
  N      9.87772542      7.40751006      5.54143191
  C      9.64551930      7.59872796      6.87041719
  C      9.86497422      6.41093259      7.50005692
  C     10.52719800      4.12735902      6.76808435
  C     11.96507000      3.96164059      7.24675322
  C      9.69190431      8.39168544      4.52007000
  H     10.39318020      5.63280677      4.42691398
  H      9.33252460      8.54417042      7.26213731
  H      9.73676874      6.12104163      8.52319382
  H      9.82756945      3.76073976      7.52513752
  H     10.37561474      3.60371355      5.82042413
  H     12.17279227      2.90773527      7.40564130
  H     12.12385566      4.49165932      8.18403246
  H     12.66035569      4.34184175      6.50101118
  H     10.38046810      8.21299254      3.69966711
  H      9.84938748      9.38511175      4.93385683
  H      8.65873761      8.33419527      4.11560569
  N      6.73093938      3.20762134      6.11318122
  C      6.51420011      2.75249819      7.34452406
  N      7.28531657      1.68519846      7.56199890
  C      8.06379662      1.50421392      6.45441701
  C      7.71466256      2.45011500      5.54575774
  C      6.10599252      4.35497570      5.49260717
  C      7.11380439      5.48378868      5.36394298
  C      7.42786507      1.03438602      8.83084602
  H      5.80054408      3.14618695      8.03750341
  H      8.80004817      0.73041788      6.39359949
  H      8.15006403      2.67708367      4.58852584
  H      5.74297199      4.05960830      4.50502226
  H      5.26026789      4.65682934      6.11353048
  H      6.67867563      6.34406639      4.86129843
  H      7.96179299      5.14576945      4.77511129
  H      7.44826190      5.77817274      6.35505138
  H      8.14544212      0.22213175      8.74732783
  H      6.46812693      0.64712332      9.17445323
  H      7.78997361      1.78387989      9.54308329
 Cl     10.35804551      4.89292062     -2.04767521
 Cl      9.96573714      3.57693770      3.44747706
 Cl      8.03413100      4.18981138      9.11203744
 Cl      6.76159660      8.20797274      3.24596664
 Cl    -15.29481767    -11.66082617     19.82507191
