#B3LYP/6-31+G(d) OPT FREQ

62, Energy =    -96.26722116 au

0 1
  N      7.17570876      3.26878863      7.74272093
  C      6.13403252      2.58398226      7.28519477
  N      5.45136826      3.34462009      6.43513467
  C      6.09983086      4.53819443      6.31620992
  C      7.18100867      4.48890748      7.13557444
  C      8.19581686      2.78637079      8.63636294
  C      9.42109363      2.35146017      7.83935990
  C      4.30902546      2.94220213      5.66715183
  H      5.86117566      1.59548902      7.59103051
  H      5.71294108      5.30359883      5.67083618
  H      7.92565707      5.22141347      7.36328151
  H      8.42908326      3.59212651      9.33765181
  H      7.78746806      1.93799691      9.18979771
  H     10.14031147      1.86277074      8.49058884
  H      9.89621086      3.20852158      7.36873892
  H      9.11064134      1.65737812      7.06082273
  H      4.59340054      2.11569961      5.01394933
  H      3.97699646      3.79320744      5.07254306
  H      3.50297162      2.61492597      6.32394450
  N      4.34148808      6.73436718      8.25036262
  C      4.54644757      6.53440046      9.55359399
  N      3.98926579      5.37336758      9.90733005
  C      3.45384198      4.80662073      8.78374024
  C      3.66632428      5.66175851      7.75113930
  C      4.77355134      7.87566149      7.47831412
  C      6.29598955      7.98357566      7.43514653
  C      4.14597545      4.76360721     11.19466740
  H      5.02442406      7.21371489     10.22659426
  H      2.96510297      3.85483535      8.81135272
  H      3.41949977      5.61161968      6.70291475
  H      4.37368053      7.74610596      6.46939939
  H      4.34248971      8.77639160      7.92783255
  H      6.59067455      9.00627717      7.21777899
  H      6.69549135      7.33432921      6.66315119
  H      6.72562521      7.68410994      8.38759713
  H      5.22203418      4.70105385     11.39309418
  H      3.70699634      3.76907585     11.18675559
  H      3.67381178      5.36914072     11.96945914
  N      7.77571748      3.04994246      2.26941879
  C      7.66593394      3.89223166      1.24662682
  N      6.73347691      4.79089501      1.53529336
  C      6.22680305      4.51823982      2.77226450
  C      6.88921767      3.42351374      3.23425399
  C      8.70054321      1.94832007      2.37826632
  C     10.13566854      2.45776215      2.44831933
  C      6.35207275      5.85975904      0.65615202
  H      8.23355571      3.92370041      0.31505956
  H      5.44950796      5.10779524      3.22304665
  H      6.81377390      2.86144884      4.14539122
  H      8.43872926      1.39453620      3.28448209
  H      8.57928024      1.29846872      1.50741788
  H     10.82011605      1.61729391      2.52211869
  H     10.26748566      3.09047841      3.32301719
  H     10.37655319      3.03210639      1.55667925
  H      6.41082053      6.81273313      1.18092956
  H      5.32908620      5.71432305      0.30766444
  H      7.03869257      5.85138344     -0.19530396
 Cl      7.20537506      0.91823417      5.42795883
 Cl      3.76999319      6.18818616      4.54511683
 Cl      7.04995659      5.61407908     10.13341841
 Cl      8.86082552      4.85715089     -1.43821983
 Cl    -11.03008914     37.41466336     10.34840926

