62
Energy =    -96.27491473 au
  N      4.26165826      6.89047142      5.67657932
  C      3.92697031      7.46451886      6.82913127
  N      4.29790189      6.67242363      7.82610842
  C      4.89257285      5.56603057      7.29915317
  C      4.87534298      5.70558959      5.94549765
  C      4.04164902      7.41874514      4.35307636
  C      5.10975857      8.44539329      3.99451524
  C      4.06286162      6.93765661      9.21616337
  H      3.39146891      8.39549628      6.99169623
  H      5.24906196      4.77048136      7.92002403
  H      5.17731107      5.05669906      5.14247782
  H      4.07508432      6.56645883      3.66285527
  H      3.05287699      7.88089321      4.32499878
  H      4.92562628      8.82404869      2.99337937
  H      6.09510302      7.98634667      4.01260248
  H      5.09168516      9.27810226      4.69528297
  H      3.39456551      7.79667515      9.28827629
  H      5.00267236      7.16107051      9.72273784
  H      3.61496167      6.05457989      9.67561184
  N     -1.26183295      3.62998080      9.14769583
  C     -0.21148911      3.99524427      9.87554180
  N     -0.49287888      5.13281122     10.51026456
  C     -1.76800050      5.49485471     10.18138740
  C     -2.24578805      4.55406595      9.32093972
  C     -1.31847622      2.51779106      8.23697054
  C     -2.32153269      1.46756483      8.69681917
  C      0.42976263      5.84830697     11.34605460
  H      0.76447092      3.53006157      9.89130195
  H     -2.22195993      6.39119793     10.54793415
  H     -3.17049068      4.50424143      8.78696019
  H     -1.60665580      2.94399481      7.26486376
  H     -0.31578571      2.09167841      8.17154434
  H     -2.33294081      0.64273916      7.99054679
  H     -3.32138890      1.89100604      8.74446531
  H     -2.05467631      1.08160813      9.67965937
  H      0.48035221      6.89404460     11.04291985
  H      1.41399559      5.39086220     11.22880426
  H      0.12398536      5.79536945     12.39235357
  N      2.01351778      4.25256545      5.76227284
  C      1.72668106      4.81115843      6.93535632
  N      1.05296116      5.93526731      6.72828778
  C      0.88968861      6.09228255      5.38978906
  C      1.49553594      5.03582727      4.78033773
  C      2.72652425      3.01879075      5.55033236
  C      1.75766958      1.88675082      5.22807370
  C      0.54019279      6.80262280      7.74440811
  H      2.03070380      4.43086870      7.89947619
  H      0.33830818      6.91271037      4.98044235
  H      1.64017077      4.80351895      3.74561040
  H      3.41465622      3.18229790      4.71058380
  H      3.29147267      2.79684068      6.45754636
  H      2.31477309      0.97689291      5.02569043
  H      1.16894345      2.13665221      4.34918034
  H      1.07753050      1.71022778      6.06032529
  H     -0.54934816      6.80041928      7.68163358
  H      0.92032808      7.82252330      7.62745518
  H      0.86520216      6.42327301      8.70695413
 Cl      2.19772733      9.66291217      8.24070834
 Cl      4.40548309      4.37527314      3.03439162
 Cl     22.13248170     -3.18496095    -31.39669894
 Cl      2.92313586      3.79147828      9.90147124
 Cl     -1.97563359      5.03369420      6.42834037
