62
Energy =    -96.26777487 au
  N      3.47982013      6.54232962      2.74010102
  C      4.22931721      5.44525165      2.66361926
  N      5.08716354      5.58547969      1.65869239
  C      4.89497583      6.79843201      1.07632765
  C      3.88383551      7.40202862      1.75624770
  C      2.44778965      6.80943059      3.71544448
  C      2.88724014      7.88096663      4.70544672
  C      6.06537097      4.62819228      1.22676114
  H      4.15080790      4.56025535      3.29750866
  H      5.49499680      7.09173649      0.22461640
  H      3.42762947      8.36002793      1.61369246
  H      1.54672572      7.13924993      3.19136360
  H      2.23264404      5.87891450      4.24069567
  H      2.07337872      8.07827698      5.40105733
  H      3.13612103      8.80642949      4.19055382
  H      3.75530899      7.54277069      5.26684098
  H      6.80215887      4.46452751      2.01301427
  H      6.55234227      5.02776275      0.33135937
  H      5.58166335      3.67688678      1.00829662
  N     -0.38388363      4.28308280      8.24664377
  C     -0.01994836      3.08347644      8.69691131
  N      0.55558217      3.22435692      9.88597236
  C      0.50230356      4.54216720     10.23203117
  C     -0.08846966      5.20595017      9.20660827
  C     -1.08450557      4.57265289      7.02111738
  C     -2.59002607      4.47070571      7.24676263
  C      1.02576233      2.17929416     10.74400901
  H     -0.10024520      2.16706983      8.15080678
  H      0.91948314      4.88252096     11.15687306
  H     -0.29650338      6.24455006      9.04887465
  H     -0.80122290      5.58164605      6.70927902
  H     -0.76278605      3.85323737      6.26585305
  H     -3.11755954      4.48883946      6.29737947
  H     -2.93375437      5.29978362      7.85828295
  H     -2.81423202      3.54288638      7.76907711
  H      0.22129483      1.87740806     11.41639290
  H      1.87926384      2.55402780     11.31250315
  H      1.31924432      1.31601007     10.15124841
  N      3.85265572      4.01651259      7.77486837
  C      3.78553382      4.90134760      8.76579146
  N      2.94416133      5.86649764      8.41254685
  C      2.46062856      5.59207809      7.16987845
  C      3.03081598      4.42491827      6.76874106
  C      4.63536996      2.80577487      7.77006699
  C      4.03981062      1.78771274      8.73447416
  C      2.63217631      7.04268692      9.17257319
  H      4.20969149      4.78063578      9.75345387
  H      1.73112024      6.24059285      6.72118525
  H      2.98424432      3.87203400      5.84728338
  H      4.64448090      2.43235739      6.74252896
  H      5.65683450      3.05033163      8.07305551
  H      4.67131737      0.90507952      8.77890933
  H      3.04983122      1.49035353      8.39839039
  H      3.96460303      2.22025772      9.73011126
  H      2.43554826      6.77023132     10.20660290
  H      1.76189839      7.51910190      8.71782367
  H      3.47250059      7.73877988      9.14338656
 Cl      7.01614633      6.63239103     -1.31809855
 Cl      3.71854596      4.05301769     11.75696402
 Cl      4.15132831      2.69398997      4.25180074
 Cl     -2.22853059      1.87822028      9.56361816
 Cl      0.18241339      7.92608754      6.92769434
