#B3LYP/6-31+G(d) OPT FREQ

62, Energy =    -96.24845915 au

0 1
  N     11.08423377      4.47284361     -0.36136325
  C      9.87612888      4.88050898      0.00893499
  N      9.34466240      3.97264328      0.82117360
  C     10.24343977      2.95231257      0.96430652
  C     11.33831309      3.27046111      0.22164179
  C     12.01037649      5.18054869     -1.21493269
  C     12.38119590      6.52842422     -0.60942680
  C      8.04320235      4.06667824      1.42049496
  H      9.36847914      5.79690929     -0.25860241
  H     10.03988245      2.09597615      1.57312833
  H     12.28320449      2.77304009      0.02528568
  H     12.89458048      4.53261959     -1.31705285
  H     11.54604181      5.32324839     -2.19412188
  H     13.07242637      7.04180996     -1.27101474
  H     12.87165707      6.38530374      0.35022446
  H     11.49873417      7.15249298     -0.47292502
  H      8.11553193      3.93733636      2.49996188
  H      7.38121154      3.29956951      1.01588284
  H      7.63278549      5.05306001      1.19441774
  N      0.08361423     -0.27585485     12.22647624
  C      1.36114009     -0.59693871     12.40405654
  N      1.70739620     -0.29716461     13.65090664
  C      0.62809259      0.22793963     14.29298140
  C     -0.39596021      0.23947329     13.39803376
  C     -0.65491744     -0.50546176     11.00813741
  C     -1.69806013     -1.59987527     11.20620666
  C      2.99228571     -0.47439217     14.26685221
  H      1.95803206     -1.02932365     11.60284887
  H      0.70650594      0.50706830     15.33613726
  H     -1.40628577      0.57864341     13.50364798
  H     -1.13187686      0.42878746     10.69927686
  H      0.07967918     -0.82077474     10.25370018
  H     -2.22259697     -1.77384394     10.27108135
  H     -2.42395286     -1.32551859     11.97004459
  H     -1.20609123     -2.52380592     11.49964404
  H      3.33830628     -1.49722734     14.12689951
  H      2.87729765     -0.25221572     15.33509083
  H      3.71979760      0.20722125     13.82721015
  N      9.10097804     11.20204093      1.49658441
  C      9.02516865      9.87988994      1.40206385
  N      9.75606144      9.33441418      2.36887273
  C     10.31479148     10.34494899      3.09890231
  C      9.89805053     11.51910980      2.55126223
  C      8.43268084     12.17220100      0.66310919
  C      6.93405650     12.17523719      0.93697384
  C      9.92065042      7.92205407      2.57759146
  H      8.46786415      9.29702919      0.68584363
  H     10.95229603     10.15617729      3.93750023
  H     10.10257370     12.56238618      2.76922248
  H      8.86920056     13.15015307      0.91479050
  H      8.62623741     11.92920016     -0.38430218
  H      6.45522543     12.91463021      0.30323239
  H      6.74762360     12.44155749      1.97462017
  H      6.49564817     11.19967241      0.73466019
  H      9.65399555      7.66022023      3.60153905
  H     10.95624039      7.63087221      2.39319766
  H      9.25847662      7.40215294      1.87875220
 Cl     14.18240214      2.72054276     -1.01285788
 Cl      2.05479277     -1.68830197      9.56911881
 Cl      1.81858291      0.44782815     17.23746130
 Cl      7.72319996      7.21584558      0.14851976
 Cl     10.01183675     14.64308943      2.15662355

