62
Energy =    -96.26904258 au
  N     -1.47587654      4.00809653      9.93633576
  C     -1.88420413      3.77577297      8.69138157
  N     -0.91694182      3.15492999      8.02883479
  C      0.14868097      3.00162437      8.86231121
  C     -0.20321884      3.53794793     10.06355438
  C     -2.24556150      4.61843347     10.99396381
  C     -3.55502717      3.87552227     11.24177642
  C     -0.99326525      2.67852373      6.67759860
  H     -2.86372302      3.96030512      8.29737726
  H      1.02425514      2.47584065      8.53039296
  H      0.30528133      3.60397981     11.00786590
  H     -1.62551731      4.58757948     11.89495282
  H     -2.44451275      5.66034009     10.72408394
  H     -4.23916440      4.51414845     11.79267155
  H     -3.36791690      2.98273482     11.82977060
  H     -4.02358327      3.57570214     10.30806846
  H     -0.24037304      1.89860734      6.54824400
  H     -0.80242222      3.48875183      5.97242400
  H     -1.99250657      2.27803609      6.50848994
  N      9.39080245      3.93776327      2.40809757
  C     10.47743866      4.49583503      1.88629582
  N     10.14276737      5.11264889      0.75861049
  C      8.80678515      4.95448740      0.55196283
  C      8.33142239      4.21599267      1.59101447
  C      9.37083781      3.20571707      3.65167331
  C      8.68164120      4.01074503      4.74725899
  C     11.01467580      5.83295425     -0.12591845
  H     11.46069547      4.38162592      2.34095989
  H      8.34326300      5.38856075     -0.32286373
  H      7.34091891      3.86880092      1.80059242
  H      8.85108848      2.25682237      3.49437302
  H     10.41789472      3.01833316      3.92084754
  H      8.67109033      3.43476036      5.66779268
  H      7.65538638      4.25132320      4.47469165
  H      9.22596530      4.93442352      4.92564354
  H     11.47304960      6.67124040      0.39765120
  H     10.40722458      6.20067891     -0.96324551
  H     11.80112673      5.17559124     -0.49466978
  N      0.11537222      0.58957532     11.06606661
  C      0.02953422     -0.00539704      9.87739625
  N     -1.21936837      0.09170007      9.43862989
  C     -1.95829072      0.74976996     10.37065442
  C     -1.11806425      1.06487601     11.39467038
  C      1.29312350      0.75555059     11.88644679
  C      2.51826825      1.14412871     11.07098279
  C     -1.69388139     -0.37493866      8.16811432
  H      0.83527217     -0.38710358      9.27638890
  H     -2.98790337      0.98725810     10.18638150
  H     -1.25812890      1.63603992     12.29320092
  H      1.05882360      1.54699191     12.60752218
  H      1.48226614     -0.17786204     12.42880838
  H      3.37483296      1.22685572     11.73566978
  H      2.35919174      2.10675176     10.59170214
  H      2.74283685      0.40883838     10.30146523
  H     -0.87605799     -0.29538647      7.45119141
  H     -2.54063803      0.24541325      7.87024206
  H     -2.01664187     -1.41516273      8.23645975
 Cl      8.59183110      6.57848582     -2.22790964
 Cl     -4.19037735      1.96079606      8.14209263
 Cl     12.73148185      3.42450549      3.74854906
 Cl     -0.08763301      3.45810565     13.39834567
 Cl      1.50169659      0.39825611      7.22192002
