62
Energy =    -96.10107238 au
  N      2.07056829      3.02382501      8.73085649
  C      2.34544668      2.65976426      7.39089042
  N      1.11618823      2.71502828      6.72126222
  C      0.13294593      2.99405674      7.61975644
  C      0.69401850      3.21749669      8.82661858
  C      3.00989381      3.72894519      9.55946626
  C      3.10680248      5.21880147      9.21724676
  C      0.92165239      2.47184855      5.32792402
  H      3.20445691      3.10816170      6.90046988
  H     -0.89199599      3.04586909      7.31188872
  H      0.24045273      3.46518665      9.76550365
  H      2.70270003      3.60916272     10.60387665
  H      3.98831296      3.25555931      9.43072713
  H      3.86733834      5.70184297      9.82529571
  H      2.15665875      5.71606329      9.39561446
  H      3.36440011      5.33654361      8.16736172
  H     -0.07441405      2.82009294      5.05071192
  H      1.00514132      1.40419440      5.09379076
  H      1.66708198      3.01392264      4.74050350
  N      0.01677278      6.83789247      3.22843269
  C      1.10301082      7.67146363      2.89914493
  N      2.12415323      6.78627922      2.42797965
  C      1.52453078      5.53317983      2.27895729
  C      0.27604175      5.57726101      2.78604504
  C     -1.24796463      7.30177591      3.70750486
  C     -2.11672876      7.87175553      2.58243015
  C      3.10911416      7.26427196      1.49643202
  H      1.41825028      8.36370971      3.68084759
  H      2.06939605      4.71032920      1.85996105
  H     -0.44464084      4.79339022      2.90742444
  H     -1.75511283      6.45700405      4.18172363
  H     -1.07029679      8.08001854      4.45815402
  H     -3.05989326      8.23222666      2.98491056
  H     -2.32379274      7.10016398      1.84446206
  H     -1.60019897      8.69500942      2.09219105
  H      2.68469814      7.51163642      0.51200786
  H      3.87658014      6.50029910      1.36040204
  H      3.57127385      8.16468371      1.90324256
  N      2.13468723      7.56664862      6.56120818
  C      1.07415611      7.61967996      7.37105635
  N      0.23984177      6.63445424      7.04682320
  C      0.77330948      5.93061915      6.01354788
  C      1.96352225      6.51353392      5.70072463
  C      3.20763940      8.52876193      6.55937190
  C      4.55839005      7.87999350      6.83389050
  C     -1.02380900      6.33580473      7.65709578
  H      0.98084922      8.37106823      8.14967531
  H      0.23080352      5.11968652      5.56920235
  H      2.67403799      6.26559867      4.94112152
  H      3.22369711      9.02847390      5.58420435
  H      2.97199470      9.25888925      7.34391154
  H      5.33792495      8.63427948      6.77439234
  H      4.77702760      7.09602050      6.11042897
  H      4.56874591      7.45553877      7.83363452
  H     -1.59391699      5.70731407      6.96621706
  H     -1.56290990      7.25753295      7.86772852
  H     -0.87428539      5.78789268      8.58877280
 Cl     20.85026724     -0.16576861    -11.57572663
 Cl     19.60897895      1.20719202    -12.42279286
 Cl     18.09514582      2.89058453    -13.47122068
 Cl      1.82944239     10.02108505      9.22704176
 Cl     -2.07126794      4.22939072      5.21971819
