62
Energy =    -95.76118422 au
  N     10.91585178      6.83482973      1.10676802
  C     11.19990061      6.84952221      2.41452746
  N     10.44939235      5.92001825      3.01424826
  C      9.69399694      5.28207993      2.06994794
  C      9.98922447      5.85870378      0.86346233
  C     11.56709923      7.66507480      0.08696597
  C     12.31376344      6.81350163     -0.92263285
  C     10.56637644      5.51034915      4.40904863
  H     11.95225762      7.44877269      2.89459948
  H      9.03853851      4.46733853      2.31722503
  H      9.63823648      5.62953626     -0.12559453
  H     10.79258783      8.26680966     -0.38773820
  H     12.24247273      8.33139618      0.61857839
  H     12.78653108      7.46768356     -1.65388862
  H     11.64258831      6.13557079     -1.44572635
  H     13.07706375      6.21768630     -0.43197335
  H     11.08242639      4.55475156      4.44495659
  H      9.57044490      5.43157521      4.83641206
  H     11.15511447      6.24854254      4.94165755
  N      4.23326278      0.62089355      4.31106044
  C      4.04763603      0.26256627      3.03502023
  N      2.74267874      0.03881807      2.85082326
  C      2.08033958      0.28535141      4.02121583
  C      3.02162458      0.65482170      4.94465295
  C      5.51723975      1.00978508      4.90569719
  C      5.48975808      2.44948306      5.38370193
  C      2.10318415     -0.22203290      1.56630561
  H      4.80026661      0.23064209      2.26811776
  H      1.01160999      0.20720184      4.10049370
  H      2.91419221      0.95975178      5.96906485
  H      5.72195324      0.31788732      5.72219377
  H      6.26989538      0.86357044      4.13442803
  H      6.46103760      2.69774152      5.80935680
  H      4.72767042      2.60187283      6.14507755
  H      5.27969749      3.12346916      4.55908849
  H      1.59298228      0.68229199      1.24590863
  H      1.40225357     -1.04400479      1.68370665
  H      2.86807508     -0.47092759      0.83952675
  N      7.62968441      3.71579825      0.82086364
  C      7.23572267      4.92495218      1.23784717
  N      7.07655089      5.70454606      0.16369494
  C      7.34625905      4.97328523     -0.95960632
  C      7.69464959      3.71541144     -0.54531244
  C      7.85838407      2.55229182      1.68537252
  C      6.89703332      1.42503220      1.35816532
  C      6.50947206      7.04817715      0.17139143
  H      7.01206323      5.20590214      2.25108699
  H      7.24670913      5.38496527     -1.94712069
  H      7.94715516      2.83781217     -1.11100164
  H      8.89632598      2.24741939      1.55488816
  H      7.72792886      2.89887618      2.70791154
  H      7.09593707      0.58775534      2.02570033
  H      7.01541851      1.08612808      0.33112004
  H      5.86883898      1.74780104      1.48857507
  H      5.49095593      6.99402420     -0.20338322
  H      7.12154588      7.69103790     -0.45536224
  H      6.49004860      7.41321154      1.19197305
 Cl      9.36364386      9.22444863      9.76093315
 Cl      1.46801299      7.75573341      9.50319838
 Cl      9.18739986      7.82874610      0.94640349
 Cl      5.19732907      9.13206004      7.75977415
 Cl      1.50439317      4.79437961      9.84439050
