62
Energy =    -96.26316534 au
  N      4.99149609      9.36025520      6.08458204
  C      4.05821957      8.76417097      6.81985634
  N      4.19256479      9.14701826      8.08029231
  C      5.25062059      9.99835572      8.15853026
  C      5.75290833     10.14200616      6.90345678
  C      5.17041833      9.19953418      4.66274118
  C      5.22998083     10.54901929      3.95781135
  C      3.41424108      8.63535887      9.16910697
  H      3.25423995      8.12423566      6.48175364
  H      5.58216089     10.41547193      9.08608103
  H      6.60061871     10.69977187      6.53951471
  H      6.10631789      8.66271023      4.48131988
  H      4.33725822      8.59444879      4.29669287
  H      5.25375138     10.39796507      2.88189558
  H      6.13539020     11.07621963      4.25154477
  H      4.36063989     11.15257242      4.21001012
  H      3.13046511      9.44473458      9.84124304
  H      4.01241477      7.90291007      9.71366630
  H      2.52632777      8.15457463      8.75534727
  N      9.58871429      8.29146029      7.36602747
  C      8.55584990      8.02177576      6.57832397
  N      8.52284801      6.71950441      6.33144778
  C      9.54406899      6.12613564      7.00460640
  C     10.21522700      7.11346510      7.65518990
  C      9.90661014      9.59755223      7.88596301
  C      9.37914404      9.74204725      9.30937836
  C      7.54907051      6.00535009      5.55738937
  H      7.91094366      8.78001326      6.17835387
  H      9.70341345      5.06329507      6.91404202
  H     11.07274609      7.06745962      8.29422543
  H     10.99254510      9.73134201      7.85538461
  H      9.43452239     10.33124719      7.22396922
  H      9.41216868     10.78271903      9.61955219
  H      9.96416699      9.14295744     10.00546695
  H      8.35024612      9.39260851      9.34254154
  H      7.92578533      4.98653840      5.41188572
  H      7.40267731      6.49132402      4.59323862
  H      6.60210319      5.97774162      6.09861582
  N      4.79856357      3.79624886      8.73358299
  C      3.74105319      3.01910196      8.51586229
  N      2.77847484      3.74837665      7.96619603
  C      3.22844973      5.02580332      7.81768315
  C      4.49915133      5.05719575      8.30303858
  C      6.02774413      3.38525714      9.37321655
  C      7.26302358      3.86887862      8.62666273
  C      1.48347712      3.24832296      7.60493535
  H      3.59673505      1.98476053      8.80459560
  H      2.60904848      5.80627285      7.40781722
  H      5.19269349      5.87399935      8.39331805
  H      6.03536154      3.79756729     10.38908121
  H      6.00856685      2.29493324      9.44018830
  H      8.15322474      3.51802182      9.14120993
  H      7.29482971      4.95445993      8.60417603
  H      7.29678087      3.48911282      7.60949186
  H      1.44468189      3.04047215      6.53444972
  H      0.72758524      3.99404698      7.84408609
  H      1.31179220      2.32230541      8.16130824
 Cl      9.36246167      3.19805897      5.60633939
 Cl      6.72216395      7.49982303      8.82942826
 Cl      8.41254870     11.21787700      5.29181708
 Cl      2.10248419      0.50558924      9.47994080
 Cl      1.15783257      7.48440311      6.79368266
