#B3LYP/6-31+G(d) OPT FREQ

62, Energy =    -96.27090506 au

0 1
  N      4.13498341      7.08725803      4.28308480
  C      4.28708186      5.97610465      3.56958032
  N      3.50129229      6.04248926      2.49899836
  C      2.83153031      7.22717730      2.52487397
  C      3.23266930      7.88566764      3.64765307
  C      4.86646299      7.42926115      5.47635445
  C      6.13204561      8.20217865      5.11778791
  C      3.34940828      5.04321780      1.47957018
  H      4.90860420      5.14041852      3.86316924
  H      2.17259558      7.49097260      1.71513957
  H      2.92102311      8.81695943      4.07406683
  H      4.20725587      8.04211161      6.10333001
  H      5.12239665      6.50175705      5.99084354
  H      6.64062300      8.51127870      6.02628018
  H      5.88037402      9.09257744      4.54596638
  H      6.80701030      7.58267105      4.52983639
  H      2.84555968      5.51094979      0.62255608
  H      2.74006282      4.21743200      1.84895021
  H      4.32375477      4.65663912      1.18650361
  N      6.93650193      4.88350359      8.41403867
  C      6.73824172      5.51171800      9.57201324
  N      6.02108513      4.72626605     10.37129311
  C      5.81061300      3.54049003      9.73090346
  C      6.38308806      3.63862597      8.50465141
  C      7.71256418      5.35828687      7.29680264
  C      9.16909895      4.93227071      7.45333446
  C      5.65114203      5.00225406     11.72760587
  H      7.02971667      6.51827286      9.78589180
  H      5.24905435      2.75870627     10.20190294
  H      6.41943928      2.95888149      7.67889523
  H      7.27331345      4.93716103      6.38742221
  H      7.64002111      6.44769231      7.27013515
  H      9.78825985      5.43045409      6.71224036
  H      9.26283627      3.85673821      7.32604742
  H      9.51346677      5.19442176      8.45222611
  H      6.51983158      4.84712830     12.37044833
  H      4.84103603      4.32645231     12.00639992
  H      5.32680564      6.03742607     11.82376591
  N      2.58410075      5.45152595      8.63467830
  C      2.87451415      4.15518795      8.68583780
  N      3.00178525      3.69765302      7.44686817
  C      2.78843684      4.73165185      6.58411566
  C      2.52236928      5.83820669      7.32944261
  C      2.40870999      6.30431441      9.78451605
  C      3.39030615      7.46888566      9.74475288
  C      3.35612782      2.36336344      7.06128804
  H      2.95979212      3.58199251      9.60916265
  H      2.86937712      4.60173150      5.52569852
  H      2.31567168      6.85931842      7.04330298
  H      1.38605551      6.69263136      9.78054629
  H      2.55378840      5.68018899     10.66981339
  H      3.30339282      8.05203896     10.65726053
  H      3.17114093      8.11568842      8.89604375
  H      4.41066277      7.10421679      9.65355063
  H      4.20087623      2.42159530      6.36646857
  H      2.51809190      1.87888446      6.55792895
  H      3.63163344      1.79568245      7.94597869
 Cl      9.02417741      5.41994301     10.91908230
 Cl      5.75478654      3.51939341      5.07809384
 Cl      1.72012705      6.97348462     -0.59738208
 Cl      2.32612612      9.08483498      6.83129079
 Cl      2.99197864      2.82190623     11.55139312

