62
Energy =    -96.27306586 au
  N      5.77189608      9.63759979      7.12817039
  C      6.63915356      8.64751031      7.32733017
  N      6.19250281      7.55656527      6.71032988
  C      5.04225125      7.87588470      6.04930467
  C      4.77709533      9.18081995      6.31066594
  C      5.88216522     10.99951725      7.58213686
  C      6.66469838     11.83940474      6.57238788
  C      6.84525661      6.28249549      6.63273133
  H      7.50409446      8.68777726      7.95540302
  H      4.51527336      7.12803274      5.49107481
  H      3.95842124      9.83039172      6.06509664
  H      4.86850984     11.39438715      7.69766733
  H      6.39167924     10.99915777      8.54809294
  H      6.90600028     12.80745678      7.00922940
  H      6.06525374     11.99627644      5.67573959
  H      7.58385680     11.32298845      6.29880426
  H      7.70314078      6.35624987      5.96262945
  H      6.12908561      5.55297961      6.25229292
  H      7.19271043      5.97427699      7.61774082
  N      6.55484965      8.22945826      3.02542206
  C      5.50897972      7.42106968      2.86497213
  N      5.94007209      6.16475089      2.78341786
  C      7.30054364      6.17290922      2.88490533
  C      7.68558199      7.46655547      3.03274053
  C      6.55823663      9.67215737      3.11153412
  C      5.19129616     10.26258776      2.81422766
  C      5.10607437      5.03089131      2.51181554
  H      4.47935699      7.70922047      2.86110166
  H      7.88040740      5.27363265      2.84109055
  H      8.65172358      7.89955109      3.18795452
  H      6.92392171      9.94344307      4.10862699
  H      7.28552354     10.03757397      2.37771890
  H      5.26968545     11.34363325      2.73659709
  H      4.48184598     10.02103642      3.60339688
  H      4.82764610      9.86617564      1.86619729
  H      4.52875978      4.76808829      3.40450508
  H      5.72983783      4.18762011      2.22322544
  H      4.43317237      5.29236271      1.69223643
  N      1.80398355      7.45805661      5.98884710
  C      1.49979299      8.75312849      5.90088861
  N      1.51483678      9.11175317      4.61449159
  C      1.82023638      8.01217317      3.86370192
  C      1.99214904      6.97340879      4.72728427
  C      1.94826308      6.70501333      7.20902398
  C      0.59858190      6.28773513      7.77543751
  C      1.30950010     10.45496729      4.15078504
  H      1.42159407      9.45986689      6.71278843
  H      1.90065191      8.04618167      2.79363900
  H      2.29574175      5.95706007      4.56319405
  H      2.56450446      5.83149309      6.97440480
  H      2.47339579      7.33210537      7.93321492
  H      0.75103027      5.72583907      8.69469730
  H      0.05766198      5.65681230      7.06981207
  H     -0.01338159      7.15889152      8.00393685
  H      0.25912085     10.63042586      3.91734904
  H      1.90910473     10.63459619      3.26098715
  H      1.61387453     11.13235486      4.95450829
 Cl      2.40644547     11.41979075      7.16356675
 Cl      8.67876204      9.09616260      5.69393080
 Cl      4.00545351      4.59984203      5.67574359
 Cl      4.56712608      7.76037166      0.38421905
 Cl    -26.39758704    -11.32449149     -7.91533127
