#B3LYP/6-31+G(d) OPT FREQ

62, Energy =    -96.25414692 au

0 1
  N      3.13384031      7.52414888      4.66778407
  C      3.03976643      7.42300320      5.98702233
  N      3.46796609      8.54371835      6.54966000
  C      3.84387389      9.39398830      5.56224906
  C      3.63538003      8.75730498      4.37939206
  C      2.76032400      6.52765754      3.68877742
  C      1.61075721      7.00913195      2.81689282
  C      3.53344819      8.77342068      7.96093731
  H      2.68048394      6.56941470      6.52301054
  H      4.24436835     10.36574916      5.76637563
  H      3.82229835      9.07714986      3.37551541
  H      3.63543960      6.30045987      3.07390597
  H      2.46493333      5.62370932      4.22136307
  H      1.29078703      6.19013345      2.17289608
  H      1.91107768      7.84916136      2.19492860
  H      0.77238720      7.31037691      3.43905583
  H      2.56033300      8.51573016      8.38614314
  H      3.75947004      9.82049227      8.14922013
  H      4.31612710      8.14634145      8.39122469
  N      0.14677254      3.08299827      4.91802949
  C      0.08895415      3.09456076      6.24673689
  N     -0.07354145      4.35230602      6.64774393
  C     -0.12174619      5.15915345      5.54871757
  C      0.01548922      4.35789281      4.45834561
  C      0.32725963      1.92157009      4.08047195
  C     -0.75791103      0.88729749      4.34992641
  C     -0.19710425      4.80772085      8.00358247
  H      0.12099325      2.21491845      6.89441348
  H     -0.21452094      6.22242037      5.65271302
  H      0.05261907      4.56290551      3.40049098
  H      0.31370621      2.27329202      3.04417148
  H      1.30718874      1.48534589      4.29525855
  H     -0.61664910      0.03073951      3.69633001
  H     -1.74132238      1.31203233      4.15987995
  H     -0.70919480      0.55201410      5.38474035
  H      0.46347499      4.23088875      8.64817402
  H     -1.22255452      4.67594116      8.35301622
  H      0.05751826      5.86999003      8.03555450
  N      9.37772548      5.06595713      8.11423929
  C      8.15400908      5.28481794      7.64562526
  N      7.34643086      4.32630206      8.08366732
  C      8.08129455      3.46846865      8.85241241
  C      9.35895688      3.93694929      8.87273902
  C     10.54249787      5.89185351      7.90151314
  C     10.33754842      7.27438408      8.50853037
  C      5.94531077      4.24133917      7.77612101
  H      7.80473676      6.10440616      7.02913966
  H      7.64844599      2.60747206      9.31806608
  H     10.27125349      3.58951143      9.34019144
  H     11.38545233      5.37559911      8.38218061
  H     10.72258430      5.97607744      6.82629379
  H     11.22102721      7.88126121      8.33294461
  H     10.18703066      7.18970780      9.58189117
  H      9.47500754      7.76940150      8.06647591
  H      5.67360438      5.13772212      7.21154277
  H      5.35832268      4.18981587      8.69329984
  H      5.73931072      3.35502163      7.17501437
 Cl      6.13368970      7.22700313      6.19944816
 Cl      0.60750417      4.08597562      1.26003491
 Cl     12.46129265      3.84307816      9.67178408
 Cl      0.46714580      8.06599301      7.15333761
 Cl     -0.09767364      0.45496902      7.96382397

