62
Energy =    -96.28175121 au
  N      5.39925907      7.36873691      7.90043904
  C      5.27782449      7.75738523      9.16698298
  N      6.36037530      7.37452907      9.84206773
  C      7.19656860      6.73003577      8.97451946
  C      6.59204556      6.73155765      7.75596915
  C      4.45628774      7.60943458      6.83305564
  C      4.45098799      9.07027577      6.40888539
  C      6.56532573      7.60602973     11.24340190
  H      4.44186882      8.24725904      9.64717624
  H      8.13807023      6.32444441      9.28188769
  H      6.85826042      6.27506034      6.81642904
  H      4.75021128      6.96197194      6.00365193
  H      3.45864072      7.33525479      7.17985756
  H      3.64167653      9.22667210      5.69976444
  H      5.39094357      9.34127199      5.93556603
  H      4.28093940      9.71749493      7.26690511
  H      7.34606584      8.35212001     11.39914288
  H      6.85304784      6.67989196     11.74010049
  H      5.62322785      7.97186300     11.66081268
  N     -0.10837146      7.98838038      7.29499861
  C      0.20445561      6.88390487      7.95758760
  N      1.14633146      7.17224530      8.85507196
  C      1.43977252      8.50011530      8.75408283
  C      0.64970449      9.01103679      7.77109501
  C     -1.10715584      8.09250673      6.26377119
  C     -2.32889986      8.85232727      6.76671188
  C      1.76724855      6.26285150      9.77840714
  H     -0.23006006      5.91665586      7.73694778
  H      2.14578881      8.96174991      9.41776473
  H      0.61047464      9.99037478      7.34330389
  H     -0.63733257      8.61868109      5.42669236
  H     -1.38465666      7.07600462      5.97821492
  H     -3.06247751      8.92180481      5.96884679
  H     -2.05938920      9.85905805      7.07798882
  H     -2.78174798      8.33133753      7.60819739
  H      1.01244588      5.63724924     10.25174155
  H      2.29747457      6.84930263     10.53473869
  H      2.48113865      5.61804512      9.26206688
  N      2.36606658      5.42086405      4.80205222
  C      1.10531396      5.74416450      4.52768476
  N      1.08776316      6.52698264      3.45779160
  C      2.37087424      6.72424650      3.04846273
  C      3.17582408      6.02198027      3.88920571
  C      2.80654503      4.55783560      5.87223418
  C      2.10826704      3.20543011      5.80985198
  C     -0.06851772      7.14748523      2.88246171
  H      0.23931466      5.40834805      5.08919497
  H      2.61290545      7.35927021      2.22271884
  H      4.24341978      5.89648415      3.92373122
  H      3.89270772      4.45580870      5.77711896
  H      2.57412426      5.03976767      6.82605740
  H      2.49696600      2.56063062      6.59297265
  H      2.28830285      2.72876863      4.84939235
  H      1.03673741      3.32289325      5.95447219
  H     -0.07308518      7.00592087      1.80172296
  H     -0.02040282      8.21636852      3.11255908
  H     -0.96397360      6.71453471      3.32114162
 Cl     -1.30283865      4.57825172      6.33385041
 Cl      6.10467820      5.06638898      5.07660891
 Cl     52.13320800    -12.85027716    -42.30060506
 Cl      3.37959801      8.65604345     11.53015269
 Cl      1.41518932      9.40862077      4.64659719
