#B3LYP/6-31+G(d) OPT FREQ

62, Energy =    -96.26486753 au

0 1
  N      6.89724614      6.35442294      6.85712477
  C      8.14802129      6.17032527      6.44791967
  N      8.71905122      7.35699231      6.27297792
  C      7.80972202      8.32752846      6.57130856
  C      6.66525280      7.69315250      6.94371260
  C      5.93520225      5.32755105      7.17598800
  C      6.40656865      4.48416151      8.35437355
  C     10.07179596      7.54072189      5.83038070
  H      8.69745155      5.24088502      6.35767803
  H      8.02724046      9.38133265      6.51822268
  H      5.69679292      8.06111165      7.23415851
  H      4.99190889      5.83453109      7.40167318
  H      5.79612517      4.69116296      6.29724780
  H      5.68777570      3.69278340      8.54678198
  H      6.49664594      5.09575076      9.24821775
  H      7.37306507      4.03512835      8.13884691
  H     10.52684868      8.37104301      6.36655652
  H     10.09427991      7.75898289      4.76124068
  H     10.61506152      6.61142399      6.02149608
  N     10.74682132      7.20507782      9.11894178
  C     10.57165507      8.51950205      9.27343454
  N      9.27747863      8.76106556      9.49621167
  C      8.63411433      7.55847523      9.58652021
  C      9.55098596      6.58665074      9.35083723
  C     11.99635112      6.52001311      8.90180740
  C     12.58884405      6.06743419     10.23233995
  C      8.72542527     10.05896407      9.75292615
  H     11.30286911      9.26835626      9.05320451
  H      7.58819392      7.49664554      9.80534678
  H      9.45937159      5.52260708      9.28665439
  H     11.79548948      5.66773031      8.24431025
  H     12.67900304      7.21261172      8.40501080
  H     13.59589499      5.68798238     10.08367319
  H     11.97852623      5.28243145     10.67159957
  H     12.61684127      6.91222291     10.91733145
  H      9.41050622     10.59152643     10.41357566
  H      7.76101456      9.94980522     10.24264657
  H      8.59538785     10.61773190      8.82179381
  N      3.84020606     10.34572903      5.55815599
  C      4.85180096     10.57288016      6.39697285
  N      4.36141165     10.90870720      7.58392661
  C      3.00477975     10.87713380      7.51395211
  C      2.67736786     10.51945429      6.24434550
  C      3.96821925      9.84522032      4.21230910
  C      4.51160513      8.41892296      4.23112528
  C      5.16615569     11.16606966      8.74173355
  H      5.90894518     10.57980880      6.17676561
  H      2.37838163     11.07395319      8.35899622
  H      1.71873639     10.35066442      5.79981082
  H      2.97676524      9.86948086      3.75430965
  H      4.63632158     10.50645895      3.65179458
  H      4.34247730      7.93515808      3.27364232
  H      4.01111287      7.85628814      5.01751071
  H      5.57614860      8.42405229      4.44644114
  H      5.18628642     10.27748810      9.37389718
  H      4.75791882     12.00220034      9.30770950
  H      6.17883774     11.39481384      8.40061556
 Cl     10.58788307      4.29251596      6.72748290
 Cl      3.45702269      7.77836065      7.49354065
 Cl      7.84333458     11.61185194      6.69312315
 Cl     11.43330043      9.09906576     11.58368794
 Cl     -1.95090170    -14.44171432    -12.49094110

