62
Energy =    -96.28443015 au
  N      4.39248860      9.08174687      3.71130922
  C      4.63514688      8.97699514      5.01726111
  N      5.92696769      8.73700983      5.19942732
  C      6.52737884      8.68745428      3.98098663
  C      5.56718924      8.90538225      3.04302257
  C      3.10341151      9.30600441      3.09650971
  C      3.18681500     10.33105967      1.97419415
  C      6.57100122      8.50496994      6.45843242
  H      3.93286577      9.07602391      5.82982047
  H      7.57178627      8.48674283      3.86971768
  H      5.65355859      8.97742031      1.96792512
  H      2.72389297      8.35867235      2.70046454
  H      2.42194766      9.64545194      3.87993747
  H      2.19974990     10.46540176      1.54165807
  H      3.86174080      9.99783401      1.18948256
  H      3.53775583     11.28866250      2.35344479
  H      7.38292494      9.21751736      6.60418002
  H      6.97934098      7.49275672      6.45228527
  H      5.83208627      8.61492223      7.25131370
  N      1.89377043      6.70932920      6.33719551
  C      2.62551272      6.47651836      7.42226132
  N      3.82976983      6.05604260      7.04776921
  C      3.88405166      6.06775380      5.68596308
  C      2.66967690      6.48095873      5.23980674
  C      0.53704386      7.19559132      6.28529923
  C      0.50221189      8.71353580      6.43347028
  C      4.92718654      5.74071461      7.91418276
  H      2.28824021      6.56825772      8.43388421
  H      4.79495739      5.80966477      5.17483588
  H      2.24516738      6.58389908      4.25707965
  H      0.12738710      6.89454843      5.31629036
  H     -0.03155691      6.72468255      7.09126749
  H     -0.51210250      9.04747612      6.63319660
  H      0.84887530      9.18726135      5.51969571
  H      1.14913347      9.02280811      7.24909118
  H      5.79261430      5.50710867      7.29557123
  H      4.68549825      4.88492477      8.54638587
  H      5.13794779      6.60516715      8.54493077
  N      5.58146683      5.91276976      1.65077536
  C      5.10739836      4.95882691      2.44496104
  N      3.78194577      4.91758647      2.32485325
  C      3.40621438      5.86864505      1.42311583
  C      4.53814161      6.49256357      0.99794602
  C      6.97199495      6.24610821      1.47439164
  C      7.64077809      5.26491101      0.51691449
  C      2.87759715      4.02212075      2.98763401
  H      5.70209450      4.39376777      3.13801470
  H      2.37090028      6.04787522      1.20995371
  H      4.70368979      7.32091476      0.32745945
  H      7.01554071      7.25741497      1.06231029
  H      7.44877522      6.20810682      2.45611194
  H      8.68768356      5.52937341      0.40150014
  H      7.16358334      5.30998895     -0.45954916
  H      7.57838267      4.24716575      0.89840171
  H      2.73484717      3.11804870      2.39223171
  H      1.91510846      4.53409990      3.09533354
  H      3.27241551      3.75359820      3.96439664
 Cl    -11.87342348    -18.83872813     24.68864622
 Cl      5.93659529      9.15201977     -0.18199751
 Cl      7.01360945      5.42117733      4.94985191
 Cl      3.59215015      8.94481647      8.14359591
 Cl      0.48818222      6.33368863      2.87172988
