62
Energy =    -96.26605370 au
  N      1.48201695      7.43259169      6.65494741
  C      1.58106636      8.48181423      7.47334757
  N      2.84371231      8.60188171      7.87384584
  C      3.55461861      7.55971003      7.34795289
  C      2.70191816      6.82611708      6.59078489
  C      0.26699808      6.88799557      6.10761457
  C     -0.50845712      7.91622139      5.29275463
  C      3.35943502      9.64639774      8.71025173
  H      0.81463531      9.20089171      7.66352910
  H      4.59262343      7.41643389      7.56141609
  H      2.84731606      5.95676477      5.98033433
  H      0.55508697      6.04265836      5.47502810
  H     -0.34601987      6.53785581      6.94780753
  H     -1.37133777      7.43475077      4.84372434
  H      0.11232264      8.31693220      4.49474255
  H     -0.85352872      8.73340512      5.92019401
  H      3.64407127     10.50131882      8.08720669
  H      4.23560748      9.28307746      9.24431923
  H      2.59312800      9.93665300      9.42624399
  N      6.14081274      8.49568166      5.14839725
  C      4.89913476      8.86240792      4.84771840
  N      4.36726526      7.95423252      4.03810123
  C      5.29507108      6.97661005      3.82631878
  C      6.41467301      7.31790249      4.52048876
  C      7.03172007      9.23658440      6.01073760
  C      7.61042807      8.34688666      7.10245723
  C      3.04312976      7.97814584      3.48883565
  H      4.43815880      9.77896362      5.20682731
  H      5.07702454      6.11405881      3.23235135
  H      7.37433976      6.82723172      4.61534989
  H      7.85086362      9.63437116      5.40358140
  H      6.45507009     10.07109199      6.42000894
  H      8.24329839      8.94069077      7.75703029
  H      8.21273312      7.55290889      6.66239349
  H      6.81862739      7.90095315      7.70009838
  H      3.08198709      8.18968562      2.41857406
  H      2.46732341      8.75296276      3.98979633
  H      2.57748489      6.99249041      3.63251307
  N      4.38308462      3.72639646      7.09002370
  C      5.45158101      3.75095553      7.88832623
  N      6.51896781      4.10041070      7.17127795
  C      6.13592766      4.22598958      5.86635755
  C      4.80052464      3.99458350      5.81523998
  C      3.05990010      3.28167721      7.45454964
  C      2.51590460      4.00308308      8.68039105
  C      7.86814817      4.18581004      7.64754612
  H      5.43948273      3.65156399      8.95259644
  H      6.84407173      4.47949632      5.10519889
  H      4.11228946      4.02226288      4.99250744
  H      2.41484411      3.44915525      6.58961858
  H      3.12296892      2.20657463      7.65808749
  H      1.49398194      3.68546195      8.86442020
  H      2.50943193      5.07974726      8.53700277
  H      3.10763584      3.76658541      9.56014927
  H      7.90103412      4.74733089      8.58072863
  H      8.47571655      4.68949955      6.89158479
  H      8.25074265      3.17927435      7.82688985
 Cl      2.07388490      4.84932580      3.93181452
 Cl      9.33580206      6.00549701      5.13945977
 Cl      0.41904827      7.53939764      9.55774044
 Cl      4.23153285     11.66104078      6.16820334
 Cl      5.83149085      1.23140996      8.32516006
