#B3LYP/6-31+G(d) OPT FREQ

62, Energy =    -96.25318345 au

0 1
  N     10.71601826     -0.36116700      1.15165583
  C     10.46880055     -1.14147684      2.20754342
  N      9.93177295     -2.28266944      1.78302690
  C      9.82995933     -2.23946340      0.42685116
  C     10.32644765     -1.03852794      0.02777977
  C     11.35970590      0.92701256      1.20544606
  C     12.77037055      0.85919440      0.62697997
  C      9.50414784     -3.39398009      2.58334187
  H     10.64593074     -0.82912757      3.22249610
  H      9.46099985     -3.10684359     -0.10792886
  H     10.42413698     -0.61900463     -0.95393400
  H     10.75770667      1.64936065      0.64541729
  H     11.39368554      1.21413231      2.26111218
  H     13.23335913      1.84055656      0.67563160
  H     12.75342636      0.53486227     -0.41223548
  H     13.37641610      0.16006534      1.19922351
  H     10.26954874     -3.64837862      3.31336205
  H      9.32337658     -4.23670665      1.90055586
  H      8.58006281     -3.14969514      3.10695036
  N      9.89364923      4.76858005      2.59344351
  C      9.72275792      3.51095456      2.99701420
  N      8.49324698      3.11610416      2.68320334
  C      7.85521915      4.15628089      2.07344284
  C      8.73842185      5.19230713      2.01240022
  C     11.11217197      5.53714023      2.67864588
  C     12.14587834      5.01607457      1.68751969
  C      7.93312477      1.83282407      2.99297246
  H     10.42564973      2.88938356      3.53273679
  H      6.83433627      4.08915836      1.76134773
  H      8.65267328      6.21145362      1.66738992
  H     10.84185683      6.57917650      2.45565477
  H     11.50785765      5.46356585      3.69408926
  H     13.03520863      5.63702686      1.73845807
  H     11.75315699      5.06067345      0.67460467
  H     12.42004841      3.98770592      1.92009979
  H      7.70277742      1.28974129      2.07808386
  H      7.01478234      1.98422264      3.56635293
  H      8.66185205      1.27537263      3.58373605
  N      7.37621928      5.63901687      6.10880607
  C      7.64855171      4.33884290      5.94334669
  N      7.41029708      3.69125928      7.09093487
  C      6.82303684      4.58103172      7.95545328
  C      6.81660722      5.79347328      7.34901664
  C      7.58786041      6.65560688      5.10456209
  C      9.02762951      7.14456365      5.11146460
  C      7.47529418      2.26446011      7.22396215
  H      8.23804798      3.93796657      5.14450655
  H      6.47028813      4.28515197      8.92229952
  H      6.46227445      6.74311977      7.69534728
  H      7.34107262      6.22509725      4.13333304
  H      6.90386577      7.48300857      5.29725634
  H      9.21487539      7.71893133      4.20488479
  H      9.70763792      6.29882180      5.12726551
  H      9.22797110      7.76582800      5.97936726
  H      6.69413021      1.81811048      6.60468882
  H      7.32811487      1.98374265      8.26333053
  H      8.44024871      1.90361606      6.87350494
 Cl      9.07252275     -5.25495797     -0.06797600
 Cl    -25.10972462     16.71369953     24.13229548
 Cl     10.89612740      1.02554049      4.61212044
 Cl      5.70126256      3.61795008      4.64889726
 Cl      9.51008892      8.31648700      1.95250724

