62
Energy =    -96.27208974 au
  N      7.72229946      3.74324589      8.48203443
  C      7.68295688      4.64834660      7.50277083
  N      8.83595951      5.30959556      7.47705129
  C      9.63686457      4.81711753      8.46074399
  C      8.94000927      3.83451696      9.09212233
  C      6.63496570      2.85695518      8.82075941
  C      7.05491528      1.39401745      8.76565213
  C      9.21279375      6.36871714      6.58505633
  H      6.81452150      4.77295785      6.86728578
  H     10.65091393      5.15111905      8.56272384
  H      9.22289603      3.20784365      9.91209718
  H      6.27944966      3.10540316      9.82532861
  H      5.83443789      3.05539755      8.09746858
  H      6.19045551      0.76669227      8.96210501
  H      7.82199834      1.16939999      9.50538910
  H      7.43958030      1.14563508      7.78057667
  H      8.63603436      6.30661447      5.66725240
  H     10.28467697      6.26254668      6.37636760
  H      9.03732008      7.33817189      7.05512956
  N     10.76627316      3.40394025      3.69621778
  C     10.51900441      2.74812754      2.56845153
  N     11.49876871      2.99061487      1.70712803
  C     12.38727012      3.84249794      2.29199444
  C     11.92749104      4.09921939      3.54597026
  C      9.93595329      3.44120686      4.87485706
  C      9.48455028      2.05101539      5.30253919
  C     11.50931885      2.54662941      0.34405665
  H      9.69045945      2.07704674      2.38222346
  H     13.25211640      4.20480918      1.77611559
  H     12.31758518      4.70436426      4.34293230
  H     10.53196445      3.91708286      5.66044540
  H      9.05993238      4.05722622      4.65096757
  H      8.76000120      2.15030973      6.10551783
  H     10.32743422      1.46854322      5.66414131
  H      9.01836822      1.51653091      4.48007707
  H     12.52934115      2.33933712      0.01896656
  H     11.07465368      3.34027995     -0.27155281
  H     10.89779777      1.64840689      0.26372453
  N      5.98566811      2.30125805      3.20723418
  C      6.34635480      1.97341613      1.96993977
  N      7.11780798      2.93165044      1.47348594
  C      7.28383494      3.88811696      2.42875380
  C      6.57367277      3.49170014      3.51948208
  C      5.18817353      1.50145857      4.10482486
  C      6.02929703      0.38506720      4.71793777
  C      7.74751549      2.91994510      0.18596704
  H      6.04354302      1.08928956      1.44850954
  H      7.91934427      4.73343120      2.23714640
  H      6.38081133      3.95414078      4.46855809
  H      4.80541531      2.16727911      4.88315768
  H      4.35317592      1.07775306      3.53959136
  H      5.38715977     -0.36835414      5.16485564
  H      6.68302185      0.78793306      5.48473997
  H      6.64777819     -0.07996829      3.95354852
  H      8.50117377      3.71375720      0.17199108
  H      7.01389534      3.09273904     -0.60192404
  H      8.21678645      1.94754073      0.04204385
 Cl    -27.67054530     -8.88051661     -5.39298280
 Cl      9.85440585      5.36970911      0.82853786
 Cl      8.51212230      0.21225656      2.12227971
 Cl     12.26217021      5.17298826      6.77136128
 Cl      4.80030452      4.13447112      6.33178935
