#B3LYP/6-31+G(d) OPT FREQ

62, Energy =    -96.26640140 au

0 1
  N      2.08434260      7.60168935      2.93882888
  C      3.35316307      7.56751178      3.35959726
  N      3.95733158      6.50862201      2.82502132
  C      3.04400122      5.81600741      2.08622236
  C      1.87310621      6.49569392      2.15781823
  C      1.09867304      8.54382005      3.39738142
  C      1.27121417      9.90659710      2.73431011
  C      5.31147042      6.09076249      3.04677815
  H      3.82964383      8.32079453      3.95009049
  H      3.32882346      4.90256584      1.59252378
  H      0.91658428      6.28353019      1.72773387
  H      0.11047296      8.13591359      3.17519023
  H      1.21048909      8.62310409      4.48357254
  H      0.51117563     10.59202034      3.09872048
  H      1.17497277      9.82032564      1.65370917
  H      2.24920374     10.32151537      2.96394938
  H      6.01190778      6.82996015      2.65676564
  H      5.45180376      5.14108419      2.52569386
  H      5.48508353      5.96146047      4.11430714
  N      4.32974101      1.87559238      4.13446205
  C      4.98053143      2.32680820      5.19646523
  N      4.43291370      3.47813009      5.57660861
  C      3.40241472      3.76485623      4.73153941
  C      3.34095922      2.75505018      3.82252200
  C      4.65396773      0.66672395      3.42250984
  C      3.55159792     -0.37361878      3.57848050
  C      4.83541276      4.29308232      6.68803489
  H      5.81151884      1.78971165      5.65046049
  H      2.82537606      4.66183669      4.84769860
  H      2.70456809      2.62177133      2.97434370
  H      4.79166800      0.93498244      2.37205620
  H      5.58787213      0.28945106      3.84627021
  H      3.81744875     -1.26772167      3.02206448
  H      2.60101635      0.00045996      3.20295850
  H      3.43928816     -0.64164174      4.62664055
  H      4.57065749      3.81004707      7.62972361
  H      4.31730648      5.25196564      6.62006227
  H      5.91351452      4.44600118      6.66821134
  N      9.16740012      2.18754273      4.80365854
  C      9.08505796      1.28432885      3.83275963
  N      8.16666088      1.67375781      2.95493170
  C      7.68756183      2.88761983      3.34400506
  C      8.31299202      3.20984524      4.50354488
  C     10.05427872      2.12150527      5.93314155
  C     11.36530402      2.83652213      5.62336875
  C      7.86681894      1.01928183      1.71697337
  H      9.57934334      0.33644068      3.83315306
  H      6.93344815      3.39117275      2.77308180
  H      8.22004539      4.07067890      5.13318703
  H      9.54665550      2.56454732      6.79490878
  H     10.23594465      1.06652484      6.14542480
  H     12.10511377      2.62526250      6.39066156
  H     11.21256071      3.91186215      5.56334770
  H     11.73211867      2.48918375      4.65889704
  H      8.76896063      1.01886577      1.10087573
  H      7.07187646      1.56610996      1.21432043
  H      7.55588936     -0.00946956      1.89905447
 Cl      4.90242677      3.26806216      1.23393158
 Cl     11.18714166      1.76283360      2.34344544
 Cl      2.77028300      6.91565682      5.83338099
 Cl     15.03636977     36.94250935     21.34273642
 Cl      7.12090582      0.16108574      5.87957254

