62
Energy =    -96.28899686 au
  N      5.28986428      8.92199759      7.36309959
  C      4.57701793      8.60243379      8.43761022
  N      4.14277404      9.71254407      9.01714991
  C      4.57555094     10.77625439      8.29131454
  C      5.30225461     10.28217183      7.25397349
  C      5.82515520      7.99348690      6.39532583
  C      5.16790036      8.20497237      5.03502026
  C      3.24780259      9.74049736     10.13596197
  H      4.38183332      7.61495199      8.84409187
  H      4.31884929     11.78509794      8.53889957
  H      5.79312476     10.78854683      6.44954362
  H      6.90957770      8.12482606      6.32841774
  H      5.61659252      6.98653023      6.75695491
  H      5.20275004      7.27574967      4.47264314
  H      5.66015250      8.98966372      4.46615893
  H      4.12336405      8.47133472      5.17491177
  H      2.26227559     10.04733021      9.78133083
  H      3.59880996     10.44480207     10.88948166
  H      3.19837933      8.73125886     10.54845434
  N      1.19137693      6.67140656      8.46977853
  C      1.44942508      5.37554907      8.56987452
  N      2.39029064      5.05184443      7.69380566
  C      2.75124670      6.17542684      7.01695652
  C      1.99569899      7.19495262      7.50443958
  C      0.18271323      7.39649729      9.19803452
  C      0.30461751      7.15962934     10.69975909
  C      2.99007342      3.76344705      7.49947045
  H      0.97675881      4.69938591      9.25075234
  H      3.47502646      6.12537138      6.22525875
  H      1.98223689      8.24365255      7.26818111
  H      0.31260300      8.45239102      8.95324701
  H     -0.79399090      7.05658199      8.83555114
  H     -0.19772614      7.95015515     11.24971365
  H      1.35465553      7.13780288     10.98062261
  H     -0.14178186      6.20849705     10.97574875
  H      3.65474266      3.53577949      8.33480060
  H      3.56792840      3.79251990      6.57519805
  H      2.21792960      2.99773903      7.43361852
  N      0.95755084      5.96152962      4.53903360
  C     -0.03627689      6.58494683      5.16021448
  N      0.15545192      7.89662237      5.06992907
  C      1.29943096      8.11315363      4.36109355
  C      1.80236718      6.89362070      4.02451566
  C      1.11469009      4.53324605      4.44083253
  C      0.48956906      4.00883702      3.15283233
  C     -0.65922876      8.91576121      5.66502284
  H     -0.77898461      6.07315793      5.76359452
  H      1.67081790      9.10212754      4.19023843
  H      2.71177499      6.60442397      3.53559209
  H      2.18975109      4.32516536      4.45320047
  H      0.62219074      4.09074309      5.30900424
  H      0.63262467      2.93411747      3.09332333
  H      0.96163811      4.46859456      2.28713821
  H     -0.57809312      4.22010682      3.13161924
  H     -1.20250001      9.46871640      4.89703993
  H     -0.00808094      9.61150121      6.20910285
  H     -1.36427782      8.45384921      6.35111020
 Cl     -1.11663266      4.70357302      7.35178694
 Cl      4.46799520      4.92596799      4.39802607
 Cl     55.59051138    -14.74455466    -46.00185135
 Cl      3.74774679      6.34573082     10.45643251
 Cl      1.86345954     10.54523610      7.02243486
