#B3LYP/6-31+G(d) OPT FREQ

62, Energy =    -95.89469666 au

0 1
  N      8.85891095      3.81680473      1.39936930
  C      9.26884676      4.02465460      0.14243438
  N      8.19120387      4.25344582     -0.61469551
  C      7.07693697      4.21883261      0.17682317
  C      7.49810960      3.94429192      1.45059823
  C      9.73750776      3.58756838      2.55216794
  C      9.59695569      4.69387190      3.58091072
  C      8.21339085      4.67562528     -2.01049434
  H     10.28890039      4.07468226     -0.19312362
  H      6.09405355      4.41380775     -0.21112032
  H      6.94481571      3.86322386      2.36778832
  H      9.48139137      2.61418447      2.96957056
  H     10.75102985      3.53787704      2.16097866
  H     10.26948730      4.48873213      4.41266618
  H      8.58025832      4.75531018      3.96333046
  H      9.85083901      5.65586261      3.14675965
  H      7.98357287      5.73683210     -2.05277273
  H      7.47995826      4.09581787     -2.56423117
  H      9.20901392      4.51498406     -2.40816671
  N      8.87855396     10.54260973      1.10372668
  C      8.26008288     11.25216705      2.05512370
  N      9.05141243     11.28360557      3.13202409
  C     10.20636403     10.60666786      2.85429622
  C     10.09870521     10.13903990      1.57172242
  C      8.37027806     10.31928365     -0.25465745
  C      9.28807905     10.93418747     -1.29461356
  C      8.81619336     12.08078482      4.33042276
  H      7.32450985     11.77171615      1.95322575
  H     11.01017364     10.53281505      3.56352900
  H     10.79622381      9.58995729      0.96680928
  H      8.26872170      9.24319839     -0.39258349
  H      7.37898837     10.76525500     -0.28900285
  H      8.87084943     10.75226288     -2.28406852
  H     10.28479072     10.50001350     -1.25275806
  H      9.38149301     12.00442620     -1.13894430
  H      9.47660404     12.94332813      4.30511603
  H      9.01161894     11.46602022      5.20483559
  H      7.78803799     12.42441531      4.32505245
  N      6.41082463      7.04080171      1.71582154
  C      6.12139298      6.81948668      0.42803921
  N      4.94658409      6.18453524      0.36832287
  C      4.46439753      6.02249591      1.63738945
  C      5.38867762      6.56479632      2.48996112
  C      7.58772425      7.76523099      2.20931506
  C      7.18732679      9.02563619      2.95297807
  C      4.20243418      5.89736879     -0.85264333
  H      6.69198490      7.15645343     -0.41841789
  H      3.51035571      5.56833316      1.83262180
  H      5.37709627      6.66951817      3.55899948
  H      8.14820863      7.08202524      2.84679758
  H      8.19419630      7.99677334      1.33678707
  H      8.08794345      9.53435772      3.29399168
  H      6.56830937      8.79791164      3.81822488
  H      6.62614117      9.69148579      2.30483841
  H      3.37995522      6.60343856     -0.92852159
  H      3.83575143      4.87546966     -0.80802924
  H      4.86128827      6.03177390     -1.70297313
 Cl      1.36157732      5.77809772      7.16105059
 Cl      6.52721276      7.70992829      5.50258880
 Cl      4.00368939      5.49725200      5.13630982
 Cl      1.57084949      1.25117929      8.22943732
 Cl      8.46782559      0.74472713      0.70892611

