62
Energy =    -96.25859378 au
  N     -0.48813846      1.86242511      4.60869488
  C     -0.17797700      2.32979172      5.82190284
  N      0.59203232      1.43606864      6.44308932
  C      0.77708341      0.37200095      5.61437102
  C      0.10279647      0.63721459      4.46395484
  C     -1.33805184      2.54979167      3.66535752
  C     -0.64161300      2.80150880      2.33403972
  C      1.11926105      1.53071078      7.77332780
  H     -0.48609313      3.31413564      6.16001621
  H      1.42846091     -0.43310806      5.90341193
  H     -0.00694008      0.04731332      3.57798417
  H     -2.24147595      1.95146265      3.50827378
  H     -1.60676618      3.50530954      4.13070620
  H     -1.35076530      3.24189568      1.63907002
  H     -0.25931309      1.87980817      1.89954889
  H      0.17748462      3.50106682      2.46640442
  H      2.03233649      0.92577910      7.81337488
  H      0.40012570      1.13647462      8.49336249
  H      1.33227717      2.56894804      8.01451178
  N      7.47289080      4.20423263     -0.06212940
  C      6.27791516      4.42668946     -0.60102441
  N      6.43708377      4.78482343     -1.86959526
  C      7.76578281      4.78907886     -2.15951703
  C      8.41837574      4.42138314     -1.02395788
  C      7.70449530      3.74745552      1.28654997
  C      8.07696425      2.26880312      1.29774730
  C      5.41098456      5.12586558     -2.81492291
  H      5.35585446      4.34844172     -0.04377508
  H      8.09034566      5.03851229     -3.16462151
  H      9.46479358      4.30851988     -0.83052816
  H      8.50538187      4.34615374      1.72784708
  H      6.77758306      3.90639646      1.84623944
  H      8.24497612      1.94282978      2.31964212
  H      8.97963852      2.08892001      0.71701799
  H      7.26646488      1.67866992      0.87854702
  H      4.68442294      4.31890271     -2.89087253
  H      5.90154256      5.28719072     -3.78502112
  H      4.89907570      6.03585820     -2.50489427
  N      3.36221120      2.06678125      4.51745510
  C      2.71213935      3.01734229      3.85196066
  N      2.52414240      4.06303280      4.64740363
  C      3.07969406      3.77074671      5.85786489
  C      3.61130613      2.52116947      5.77436428
  C      3.83611217      0.81307145      3.98665548
  C      5.22508181      1.00160182      3.38551959
  C      1.86362706      5.28865883      4.30251357
  H      2.40367403      2.94739682      2.82968849
  H      3.05849094      4.46880668      6.66866963
  H      4.08940255      1.89250094      6.49943971
  H      3.85230379      0.09778853      4.81659763
  H      3.13453593      0.47760882      3.21997413
  H      5.53354707      0.09720734      2.86967481
  H      5.94547648      1.22108196      4.16916613
  H      5.20769435      1.83230677      2.68282712
  H      2.38132458      6.12242333      4.77308092
  H      0.82112233      5.28053784      4.65525011
  H      1.89509437      5.41951999      3.22321139
 Cl     33.43135369      3.87444250     27.27431709
 Cl      4.43926739      4.21379582      2.00515553
 Cl      3.53023166     -0.56729095      7.01769040
 Cl      7.59216899      5.45555148     -5.23333643
 Cl     -1.18870025      5.25773373      5.65151921
