62
Energy =    -96.29002815 au
  N      4.85426657      7.51388319      8.54076976
  C      4.94538834      7.62803525      7.21768649
  N      4.60186081      8.86097201      6.86759270
  C      4.28930237      9.55663333      7.99492699
  C      4.45148945      8.71121841      9.04886276
  C      5.17216726      6.35632831      9.33759480
  C      6.64939652      6.35599426      9.71698258
  C      4.50722460      9.34654477      5.52209099
  H      5.18820886      6.85389434      6.50662169
  H      3.94309556     10.56768024      7.95693319
  H      4.24941039      8.81542028     10.09951226
  H      4.55133947      6.41236890     10.24187435
  H      4.93048943      5.46018283      8.76351670
  H      6.86996608      5.47939456     10.31881298
  H      6.88276531      7.24166562     10.30232835
  H      7.27755999      6.34054811      8.82750188
  H      5.30166396     10.06468162      5.31678124
  H      3.53697983      9.83364834      5.40885220
  H      4.58481157      8.49791179      4.84353943
  N      1.24168108      7.40788680      9.18168634
  C      1.72387224      7.11270468      7.97962258
  N      2.01024510      5.81681525      7.93125235
  C      1.68361764      5.27069425      9.13369989
  C      1.20547413      6.27119078      9.92047353
  C      0.86330656      8.71639170      9.64959294
  C     -0.63289286      8.78102903      9.93181142
  C      2.47623243      5.05856126      6.80703034
  H      1.85230609      7.83447968      7.19229182
  H      1.80054861      4.22630895      9.33260490
  H      0.88721726      6.25885175     10.94060246
  H      1.44104257      8.91133453     10.55801897
  H      1.13540519      9.43603725      8.87531764
  H     -0.90019536      9.78814289     10.23831263
  H     -0.90988177      8.09003079     10.72433691
  H     -1.19482357      8.52884179      9.03523825
  H      1.61136048      4.55754849      6.36400880
  H      3.18430463      4.30247975      7.14322449
  H      2.96126919      5.69720314      6.07026137
  N      1.45469405      6.04771012      3.62254387
  C      0.39447814      6.14479789      4.42085697
  N      0.23249243      7.41553642      4.76694492
  C      1.19643579      8.15717705      4.15755323
  C      1.96779152      7.29627253      3.43958380
  C      2.00775842      4.83388560      3.08052405
  C      1.68572247      4.69235426      1.59705051
  C     -0.76079681      7.89954389      5.68161100
  H     -0.17649390      5.33829710      4.86387908
  H      1.28768303      9.20885894      4.33940934
  H      2.85456325      7.46398465      2.86617814
  H      3.09031414      4.87513158      3.24166840
  H      1.59352116      3.99573452      3.64298796
  H      2.12534283      3.77582366      1.21413395
  H      2.09234051      5.53057376      1.03627901
  H      0.60904849      4.65494439      1.44089518
  H     -1.64770324      8.23732928      5.14320038
  H     -0.33769034      8.73840789      6.23650469
  H     -1.03150000      7.08107020      6.35007602
 Cl     -0.80170669      4.61442259      6.80909730
 Cl      4.78588085      6.08743797      4.41113115
 Cl     54.74980510    -14.19997269    -44.85806218
 Cl      3.26470489      7.49243699     11.78093983
 Cl      1.50563384     10.24519284      6.60008100
