62
Energy =    -96.26570301 au
  N      7.97090025      7.30150033      8.09748650
  C      8.15368908      7.42717123      6.78551686
  N      7.39105575      8.41739042      6.33196555
  C      6.75952768      8.98869821      7.39463099
  C      7.12362298      8.29550689      8.50169690
  C      8.65439625      6.37284999      8.95770494
  C      9.87704793      7.03362233      9.58676777
  C      7.34857371      8.83031269      4.96293943
  H      8.69981936      6.74398710      6.17096418
  H      6.10487691      9.82876583      7.28105149
  H      6.85314993      8.42355655      9.52911509
  H      7.95059473      6.02633218      9.72127826
  H      8.95967827      5.52326403      8.34458067
  H     10.48865700      6.29319277     10.09351589
  H      9.57637487      7.79531982     10.30192226
  H     10.45961723      7.51023125      8.80093466
  H      8.36480478      9.07787004      4.64786139
  H      6.70274795      9.69961033      4.86060489
  H      6.96522072      8.01118803      4.35217216
  N      1.14621811      3.67227415      8.32180790
  C      1.19404225      4.52126507      9.35451799
  N      1.91511151      3.96527953     10.32597041
  C      2.32997453      2.73511280      9.92082073
  C      1.85295006      2.55145411      8.66098409
  C      0.44749633      3.90984058      7.08040920
  C      0.92194110      5.18558853      6.39583204
  C      2.20277268      4.54034275     11.60789154
  H      0.78452066      5.53467232      9.35390305
  H      2.97743886      2.14650961     10.54833894
  H      1.95577550      1.71924778      7.99531383
  H      0.60756877      3.03891959      6.43911267
  H     -0.62248761      3.99540211      7.29509197
  H      0.35505663      5.33606857      5.48163193
  H      1.97620944      5.12433794      6.14121169
  H      0.76088306      6.04214725      7.04780895
  H      3.12755641      4.08726991     11.97979575
  H      1.39535744      4.32150557     12.30852441
  H      2.30284414      5.61866909     11.51096880
  N      5.03671681      4.26474890      9.02687949
  C      4.37566827      5.03000119      8.16149428
  N      4.20618199      6.23950003      8.68319991
  C      4.78606245      6.24609899      9.91772663
  C      5.31328177      5.01101683     10.13064736
  C      5.50033262      2.91822084      8.80668110
  C      6.90460340      2.93944518      8.21270692
  C      3.57294087      7.35312159      8.04047403
  H      4.01880151      4.71121971      7.20627732
  H      4.76875324      7.11371847     10.54389739
  H      5.78690569      4.57524169     10.98696420
  H      5.47657428      2.40825816      9.77505357
  H      4.81024670      2.42972413      8.11631963
  H      7.19097755      1.93942599      7.90145304
  H      7.62327540      3.29680399      8.94534079
  H      6.92053229      3.60111570      7.34885081
  H      4.04593307      8.27445830      8.37280120
  H      2.50350030      7.39374132      8.29108020
  H      3.70286196      7.25177208      6.96531732
 Cl     10.35892463      8.74300337      6.61049623
 Cl      6.00236629      5.66346599      6.08719029
 Cl      4.73856555      2.43307591     12.03898234
 Cl    -16.75506400    -17.88158934    -11.20083663
 Cl      0.37794575      7.50768168      9.00501008
