62
Energy =    -96.18095645 au
  N      4.84793636      6.69108881      4.27513853
  C      5.69154450      5.69786700      4.53204374
  N      5.58820715      5.37012972      5.81521847
  C      4.64695337      6.16689474      6.39194688
  C      4.17851598      6.99759638      5.42231358
  C      4.70178412      7.31843779      2.98328375
  C      3.29507611      7.12781801      2.42995011
  C      6.34083205      4.36500447      6.51134897
  H      6.37865940      5.30310184      3.78727104
  H      4.40302128      6.04736370      7.43197868
  H      3.43006505      7.76105388      5.46479300
  H      4.91430416      8.38716434      3.08968147
  H      5.45455013      6.86677148      2.32893584
  H      3.24820701      7.51370875      1.41510036
  H      2.56507321      7.66167112      3.03355920
  H      3.03056754      6.07332618      2.41834693
  H      6.29313920      3.41890672      5.97448024
  H      5.91021987      4.25178107      7.51190151
  H      7.38514342      4.66908303      6.59524000
  N      0.87391280      2.63013604      8.80716400
  C      0.37240647      3.81812046      8.13174808
  N     -0.74881443      3.33699853      7.33531612
  C     -1.05690049      2.05816322      7.82254760
  C     -0.11570387      1.65129336      8.67601900
  C      1.60769974      2.76157862     10.04051861
  C      0.76231254      3.22071275     11.23373851
  C     -1.81268211      4.27430530      7.09407496
  H      0.02394977      4.58789904      8.86474482
  H     -1.90345175      1.52592176      7.43232667
  H      0.00501585      0.69884584      9.15797738
  H      2.03971196      1.78003296     10.26086591
  H      2.43286958      3.45767849      9.87744617
  H      1.37616699      3.25144953     12.13058881
  H     -0.07260175      2.53794210     11.39550776
  H      0.36604515      4.21803029     11.05772557
  H     -2.27895774      4.63662173      8.02644197
  H     -2.57638201      3.79366269      6.48308664
  H     -1.40652959      5.12739452      6.55465910
  N      1.86669001      3.71326962      6.13270853
  C      1.46420652      4.51150186      7.27782892
  N      0.93296832      5.75229748      6.72033169
  C      1.20230447      5.71357783      5.34443131
  C      1.72628828      4.53650654      5.00711712
  C      3.02254406      2.85371382      6.25452408
  C      2.61547870      1.38109961      6.24088665
  C      1.16792129      6.97178491      7.45273515
  H      2.31847553      4.70260641      7.95690440
  H      0.91522395      6.54161376      4.72780915
  H      1.98101871      4.15616959      4.03663212
  H      3.70951632      3.04333904      5.42024559
  H      3.54507321      3.07750018      7.19013019
  H      3.49304625      0.74711230      6.35174685
  H      2.11770578      1.13836205      5.30407659
  H      1.92745423      1.18889566      7.05747244
  H      0.45285977      7.05112815      8.27745457
  H      1.02158423      7.82016970      6.78842974
  H      2.18144634      7.01692504      7.87066675
 Cl      1.48691690      9.58885369      4.70047355
 Cl      7.48658697      5.42334394      1.96299521
 Cl     -0.86975751     10.22857932      4.11715005
 Cl      4.59453950      4.62956180      9.35114080
 Cl     -2.76880950     10.77765151      3.64852488
