62
Energy =    -96.27364572 au
  N      5.54371745      5.72527609      6.10674974
  C      4.94139850      5.94084150      4.94409411
  N      3.68082680      6.29697476      5.16139619
  C      3.48836774      6.34517187      6.50896779
  C      4.65833682      5.98511882      7.10481203
  C      6.92750823      5.36398107      6.28933810
  C      7.76590546      6.62448990      6.47513767
  C      2.73188068      6.67082349      4.15466416
  H      5.39137366      5.78771410      3.98509785
  H      2.55059444      6.64271109      6.93195608
  H      4.92069616      5.82793037      8.13251521
  H      6.98816210      4.71793012      7.16884823
  H      7.25340308      4.81611014      5.40176421
  H      8.82265545      6.37863809      6.42740505
  H      7.55492958      7.08504693      7.43791574
  H      7.52965082      7.33888482      5.68953930
  H      3.11917938      7.54229804      3.62537260
  H      1.78571195      6.92278653      4.62798149
  H      2.57570668      5.85217091      3.44562645
  N      2.59265867      3.28084972      7.53439288
  C      3.70571826      3.04560903      6.83842393
  N      3.41311705      3.05348803      5.54153937
  C      2.08217821      3.29942390      5.40000853
  C      1.56566170      3.44270372      6.64914833
  C      2.52209908      3.34142538      8.97525715
  C      1.83441352      4.60963157      9.46162232
  C      4.28135014      2.78662895      4.43140022
  H      4.67499928      2.94609728      7.30893693
  H      1.64363044      3.39025968      4.42002701
  H      0.56001869      3.63290188      6.96031285
  H      1.98956805      2.45753732      9.34131527
  H      3.55984046      3.32201605      9.33453132
  H      1.83489731      4.61708248     10.54776092
  H      0.80382535      4.67171562      9.11655224
  H      2.38098923      5.48146455      9.11442527
  H      5.28405337      3.17691445      4.59156576
  H      3.84260279      3.24352006      3.54326808
  H      4.35500822      1.71080958      4.26498716
  N      5.64611247      4.56991688      0.61300972
  C      6.83968876      4.99677132      1.02316859
  N      6.69622786      6.16651413      1.63796864
  C      5.36486032      6.46484647      1.67951040
  C      4.70367310      5.46400251      1.04453937
  C      5.37073994      3.32298667     -0.05627466
  C      4.84423131      2.29062122      0.93300556
  C      7.72432491      6.88513873      2.33395860
  H      7.77280368      4.51786840      0.81094115
  H      5.02612655      7.34825393      2.18838672
  H      3.65397786      5.28388629      0.92561134
  H      4.63143530      3.51081506     -0.84090634
  H      6.30076851      2.97516910     -0.51453419
  H      4.73719479      1.32497437      0.44681158
  H      3.87707320      2.60592742      1.31597924
  H      5.54066400      2.20404569      1.76276363
  H      8.26079499      6.18013091      2.97071651
  H      7.24403442      7.64624644      2.95321404
  H      8.41882732      7.35172222      1.63406509
 Cl      1.90411556      3.98976088      2.20628474
 Cl      7.30868954      3.64800790      3.25429649
 Cl      5.48395585      8.63844180      4.15619930
 Cl      5.76717262      3.61391562      9.15523935
 Cl      9.34035555    -27.92978852      2.43185034
