#B3LYP/6-31+G(d) OPT FREQ

62, Energy =    -95.81538721 au

0 1
  N      5.05342757      5.86443511     -1.65346026
  C      5.95415322      5.36451443     -0.79911433
  N      5.69397390      4.06383997     -0.63340986
  C      4.62674912      3.72121750     -1.41630944
  C      4.22194503      4.85855547     -2.06272869
  C      5.02585049      7.24653250     -2.14587539
  C      5.23608501      7.30096070     -3.64747890
  C      6.53289162      3.12071856      0.09715239
  H      6.78870003      5.89266791     -0.37461830
  H      4.26069595      2.71262749     -1.47398555
  H      3.44321589      5.01184731     -2.78662533
  H      4.06737488      7.67702312     -1.85725952
  H      5.81414161      7.77700766     -1.61680212
  H      5.21601289      8.34156548     -3.96831690
  H      4.45672827      6.75862601     -4.17867494
  H      6.19241969      6.86373819     -3.91697932
  H      7.08015495      2.51787945     -0.62246664
  H      5.89883236      2.49936679      0.72374261
  H      7.24077384      3.67764506      0.70043494
  N      9.13153944      6.45574417      8.16811998
  C      9.72534272      5.35648729      8.64787653
  N     10.98689588      5.66779920      8.96168189
  C     11.19405152      6.99449500      8.70428059
  C     10.02124697      7.49391437      8.20390909
  C      7.72450357      6.55263851      7.76279555
  C      6.96808634      7.54185412      8.62954782
  C     11.92504868      4.79373653      9.65656743
  H      9.25548396      4.40564102      8.82319188
  H     12.12968102      7.47849083      8.91622574
  H      9.75598818      8.49197884      7.90819150
  H      7.70637298      6.84116816      6.71221537
  H      7.30955365      5.55129505      7.85141354
  H      5.93045145      7.57676589      8.30046843
  H      7.39025269      8.54173450      8.55399736
  H      7.00095082      7.24167146      9.67222722
  H     12.00115815      5.12237026     10.68951026
  H     12.88937330      4.84731561      9.15863995
  H     11.53889919      3.78095894      9.63696306
  N      9.53930268     -0.45364919      3.38356647
  C      9.17367834      0.82669955      3.24880633
  N      9.90910243      1.36943490      2.27336026
  C     10.73845220      0.41257294      1.75772010
  C     10.50441450     -0.74076124      2.45794043
  C      8.93178366     -1.41741020      4.30850523
  C      8.27217063     -2.55997375      3.55921674
  C      9.71574831      2.70088906      1.71048715
  H      8.37742007      1.31906486      3.77716277
  H     11.39811798      0.61198621      0.93331082
  H     10.92245621     -1.72391917      2.34575571
  H      9.71857335     -1.77253208      4.97344675
  H      8.20736180     -0.86162438      4.89930165
  H      7.82924146     -3.24502786      4.28082111
  H      8.99217256     -3.10884363      2.95586597
  H      7.49541372     -2.18765250      2.89861428
  H      9.22349148      2.59911740      0.74711318
  H     10.68469202      3.18104601      1.60408294
  H      9.07583105      3.27110789      2.37424208
 Cl      1.28207083      2.46704857      9.76061803
 Cl      1.28498407      4.87953632      8.46283098
 Cl      3.49383592      3.83581640      0.32829213
 Cl      0.02205235      6.04493356      4.09121216
 Cl      0.70500484      9.86927864      7.59503747

