#B3LYP/6-31+G(d) OPT FREQ

62, Energy =    -96.15479702 au

0 1
  N      4.18503317      9.21084485     10.80258467
  C      2.95114895      9.68285140     11.30763521
  N      2.59674818     10.75849088     10.44307371
  C      3.44454116     10.70216743      9.34757574
  C      4.40292907      9.78124352      9.58049790
  C      4.84574129      8.03902828     11.29390259
  C      4.24065915      6.74881214     10.73878299
  C      1.25752112     11.25942935     10.38527491
  H      2.94770881      9.92892223     12.37033248
  H      3.31793979     11.36372232      8.51373255
  H      5.22295136      9.47949550      8.96064638
  H      5.89883069      8.09632632     11.00412402
  H      4.77873083      8.04744258     12.38775345
  H      4.76136066      5.88324709     11.13909081
  H      4.33279240      6.74174239      9.65553310
  H      3.19018549      6.68515883     11.01186414
  H      0.54608024     10.52618341      9.97615147
  H      1.23255547     12.15368316      9.76158384
  H      0.92915796     11.52035292     11.39295310
  N      2.06782015      6.60910111      7.68742961
  C      2.71313021      6.24044516      6.57722903
  N      2.85321100      4.91696103      6.57717749
  C      2.34663666      4.42890467      7.74676717
  C      1.85679864      5.48465371      8.44153959
  C      1.82554182      7.97295146      8.07536284
  C      0.63345366      8.56651228      7.33219617
  C      3.50406040      4.12503258      5.57246205
  H      2.95442391      6.88764180      5.76036565
  H      2.41347009      3.37826302      7.97127484
  H      1.38568892      5.52889664      9.40091688
  H      1.65493489      7.99838692      9.15380582
  H      2.73733479      8.53975988      7.86042497
  H      0.49462178      9.60171288      7.63108860
  H     -0.27577728      8.01226368      7.55765681
  H      0.79985589      8.53873454      6.25797979
  H      3.60029519      3.10806839      5.96166991
  H      4.48665168      4.54464932      5.35857501
  H      2.91547013      4.11182123      4.65370386
  N      7.09820437      2.22489000      5.48725708
  C      6.31306110      2.32386255      6.55516425
  N      6.50148925      3.51068363      7.12001108
  C      7.44043643      4.18404099      6.39530963
  C      7.81371030      3.37480517      5.36544658
  C      7.14778728      1.11911428      4.56194277
  C      5.83843185      1.01911354      3.78843110
  C      5.81328573      3.98740795      8.28528274
  H      5.56906322      1.61716551      6.89001078
  H      7.74031152      5.17919209      6.64991484
  H      8.53886231      3.47212772      4.56972692
  H      7.99365535      1.31167115      3.88618505
  H      7.32428340      0.19790496      5.12274593
  H      5.88661140      0.17962770      3.10123662
  H      5.67625081      1.92658647      3.21232797
  H      4.99794594      0.87447297      4.46483516
  H      5.48365259      5.01512668      8.11571164
  H      6.47594501      3.96891546      9.15176466
  H      4.95601212      3.34079511      8.46606246
 Cl    -19.90870216     24.65150160      3.02786830
 Cl      5.03616378      7.14290718      7.24276706
 Cl      3.44370234      1.35636288      7.55123399
 Cl    -19.21717733     25.13326307      0.58510635
 Cl      9.73659868      2.40931440      2.98904708

