#B3LYP/6-31+G(d) OPT FREQ

62, Energy =    -96.24976564 au

0 1
  N      8.42527679      4.55387107      7.88982974
  C      8.67280816      5.07302680      9.08902236
  N      7.82323769      4.55359580      9.97414829
  C      6.97043246      3.72367710      9.31268848
  C      7.35156862      3.71507696      8.01029178
  C      9.22392846      4.72755126      6.69562111
  C     10.31032745      3.66464192      6.62507887
  C      7.69511684      4.95210334     11.34402660
  H      9.48674164      5.72771172      9.31919944
  H      6.18414251      3.21813148      9.83828831
  H      6.95203786      3.19010963      7.16789029
  H      8.56782243      4.64771597      5.82766031
  H      9.65824664      5.72757084      6.71384228
  H     10.82943912      3.72149374      5.66248302
  H      9.87335634      2.67157627      6.71056663
  H     11.03557503      3.79827140      7.42465800
  H      8.62794680      4.78023820     11.88206761
  H      6.89112339      4.37496815     11.79727832
  H      7.45761534      6.01795756     11.36546008
  N      2.13219469      1.56052247      9.79581080
  C      1.35305057      1.04536132      8.84958521
  N      2.11928597      0.58391371      7.86860174
  C      3.42369218      0.82065534      8.19233179
  C      3.42974494      1.43163168      9.40734585
  C      1.69875678      2.13541980     11.04809023
  C      0.94020168      1.10688118     11.87766521
  C      1.61375977     -0.05925779      6.68933835
  H      0.27767597      0.88540175      8.85703049
  H      4.23566154      0.54071692      7.55384317
  H      4.23008171      1.77228307     10.04311170
  H      2.59763451      2.47085849     11.57525111
  H      1.05982489      2.99771200     10.83842332
  H      0.61312060      1.56038796     12.80873666
  H      1.58714346      0.26484373     12.11161110
  H      0.07037798      0.73998330     11.33841771
  H      2.22803327     -0.92381123      6.44333238
  H      1.61302700      0.63286799      5.84633622
  H      0.58461158     -0.37310610      6.90564409
  N      4.38447149      6.39874667     10.65618218
  C      4.58660004      7.50538645      9.94785170
  N      4.50633441      7.21447744      8.65660066
  C      4.20922799      5.89145573      8.53569818
  C      4.12379872      5.37903563      9.78982628
  C      4.29911948      6.29862919     12.09043196
  C      2.87439922      6.59601136     12.55109615
  C      4.66308980      8.17651687      7.60914319
  H      4.86216189      8.45971432     10.34340244
  H      4.08546840      5.42115394      7.58196832
  H      3.94704309      4.38545659     10.14727237
  H      4.59322609      5.28419930     12.37067699
  H      4.99641130      7.01819597     12.52504552
  H      2.84585578      6.73009991     13.62915192
  H      2.21311822      5.77660181     12.28036523
  H      2.51858278      7.50104492     12.06171852
  H      3.98144272      9.00611478      7.80688499
  H      4.43060679      7.71844044      6.65048672
  H      5.69424672      8.53472979      7.60905707
 Cl     11.77685797      3.57407374      3.62919802
 Cl      4.98930004      2.76714879     11.93153398
 Cl      7.57757716      7.46122477      9.16405320
 Cl      2.29216784      8.89330363      9.98451173
 Cl     -1.25566059     -0.47888801      8.24501135

