62
Energy =    -96.26628817 au
  N      2.48980642      6.84275706      4.89674857
  C      3.09888475      6.51464285      6.03224595
  N      3.13275089      5.18848062      6.13591260
  C      2.52203021      4.65751809      5.03652705
  C      2.11722212      5.69830610      4.25940334
  C      2.23251586      8.16712088      4.38139677
  C      3.33275978      9.15056141      4.74251097
  C      3.76652860      4.47531661      7.20822784
  H      3.58692113      7.15631869      6.75669446
  H      2.42996449      3.60185057      4.88521837
  H      1.68335991      5.73916526      3.27505742
  H      2.14649203      8.05781359      3.28987883
  H      1.27113101      8.51449295      4.77456380
  H      3.09036817     10.12295647      4.32298391
  H      4.27873180      8.82317786      4.32261956
  H      3.44599403      9.25454850      5.81847181
  H      4.31567138      5.20373648      7.81179727
  H      4.45951945      3.73694671      6.80605075
  H      3.02358451      3.97095159      7.82780034
  N      6.87236318      7.60634688      4.55624698
  C      6.64330206      7.64690171      3.24542080
  N      5.82989057      6.65131061      2.91438452
  C      5.52782225      5.95998418      4.04423071
  C      6.17614625      6.56139213      5.07980674
  C      7.70732554      8.52215746      5.29229482
  C      6.86795534      9.58556107      5.99017196
  C      5.35149496      6.31928290      1.60575154
  H      7.12596508      8.33167673      2.57296115
  H      4.92294964      5.08028885      4.00248885
  H      6.15797659      6.37223251      6.13606416
  H      8.25591880      7.94822962      6.04242655
  H      8.41350120      8.95905447      4.58117109
  H      7.51893099     10.26130646      6.53739855
  H      6.18822277      9.11096992      6.69527741
  H      6.29321693     10.16184417      5.26905833
  H      4.26804043      6.49370902      1.53737353
  H      5.55409996      5.26287067      1.42771165
  H      5.86317209      6.92997475      0.86569044
  N      9.51324261      4.90399570      1.02529482
  C      9.15140354      5.40439355      2.20593072
  N     10.07048468      5.08518904      3.11157084
  C     11.00142202      4.28717794      2.51216459
  C     10.65514475      4.17569734      1.20468830
  C      8.77375689      5.11373840     -0.19083645
  C      9.03618612      6.51451708     -0.73805765
  C     10.00686123      5.50185268      4.48000314
  H      8.38089386      6.12714887      2.36212228
  H     11.82680758      3.86830727      3.05043480
  H     11.12215037      3.64081551      0.40338572
  H      9.06632501      4.34724264     -0.91286937
  H      7.71519403      4.98480076      0.04932034
  H      8.30893192      6.76393335     -1.50550780
  H     10.03475656      6.57968444     -1.16513559
  H      8.96835125      7.24281845      0.06771769
  H      9.95847919      6.59263251      4.50013219
  H     10.88727692      5.15393516      5.01542949
  H      9.10405099      5.09057250      4.93632919
 Cl      5.14084869      7.36530456      8.23473559
 Cl      2.05285915      6.96618734      1.33804627
 Cl     -6.77188071    -17.50843384     27.10328827
 Cl      7.32161352      3.76719703      2.82645979
 Cl      9.58064198      8.31952549      2.42946965
