#B3LYP/6-31+G(d) OPT FREQ

62, Energy =    -96.27134175 au

0 1
  N      3.84979765      3.32792225      6.57795744
  C      3.25612805      4.00457771      7.55931769
  N      2.03062914      4.34714423      7.16969155
  C      1.81044103      3.81473906      5.93376580
  C      2.94924509      3.17648261      5.56286556
  C      5.17442684      2.76131497      6.60179158
  C      5.11338784      1.30995484      7.06647523
  C      1.04459725      5.03573420      7.94884958
  H      3.72963627      4.31939789      8.46450456
  H      0.88238663      3.98256971      5.42553525
  H      3.21090134      2.65952739      4.66351280
  H      5.59504182      2.84522059      5.59431322
  H      5.77961527      3.35122938      7.29305752
  H      6.11566367      0.92968729      7.24258216
  H      4.62908385      0.69093721      6.31549232
  H      4.53606128      1.25532226      7.98749695
  H      1.52748698      5.76529342      8.59581396
  H      0.51409547      4.31567839      8.57451544
  H      0.34996390      5.53219277      7.26573042
  N      7.22419570      8.91287777      2.47990748
  C      7.87799177      8.39031458      1.44668688
  N      7.70829648      7.07402759      1.45865972
  C      6.92878518      6.73948336      2.52689292
  C      6.62338270      7.90126700      3.16807660
  C      7.12138106     10.31349292      2.80982372
  C      6.40510436     11.07530959      1.70102814
  C      8.26797236      6.17875065      0.48676367
  H      8.46010213      8.89736556      0.68160370
  H      6.66092732      5.71831488      2.74272713
  H      6.04703006      8.10893869      4.05124137
  H      6.56352652     10.38326445      3.75028265
  H      8.12760701     10.71798547      2.95110697
  H      6.33770948     12.12667436      1.96630272
  H      5.39739318     10.68720068      1.57307856
  H      6.94401001     10.98083385      0.76065212
  H      8.80186006      6.77814612     -0.25469797
  H      7.47354385      5.60644680      0.00828026
  H      8.95270742      5.48214096      0.97030641
  N      3.43132934      6.08700876      4.36262858
  C      2.57647966      6.87963385      5.00115435
  N      3.16428912      7.35032277      6.09323788
  C      4.43260835      6.86039759      6.14678930
  C      4.60036409      6.06192977      5.05848230
  C      3.19775628      5.43013408      3.10158228
  C      3.21258093      6.44746075      1.96514859
  C      2.60462814      8.31737253      6.98826767
  H      1.52572597      7.00214069      4.76873336
  H      5.12051687      7.14660925      6.91365722
  H      5.42567963      5.46065240      4.72901105
  H      3.99629421      4.69361288      2.96785910
  H      2.22769458      4.93093803      3.14497829
  H      3.08794199      5.93649254      1.01479707
  H      4.15988184      6.98092546      1.95412362
  H      2.40517605      7.16563613      2.08820555
  H      3.11520988      9.26995000      6.81624893
  H      2.76530014      8.01256044      8.02210048
  H      1.54013394      8.41193404      6.78697620
 Cl      2.61685182      2.21471679      9.38071280
 Cl     -0.51050285      6.38860088      5.26314998
 Cl      5.24597509      9.78315262      5.60561975
 Cl      9.57708598      8.92622831     -1.14079167
 Cl      6.03054574      3.56971941      3.33626139

