62
Energy =    -96.26832395 au
  N      3.33528662      4.01132319      0.79227460
  C      2.20392780      3.50987782      1.27263603
  N      1.74874342      4.32109882      2.22324359
  C      2.61209111      5.36843576      2.34814213
  C      3.61332298      5.17509747      1.44690323
  C      4.11758621      3.40301656     -0.25796084
  C      4.34438647      4.37981165     -1.40391042
  C      0.55193448      4.15356627      2.99871956
  H      1.76664836      2.58494612      0.90301321
  H      2.42804776      6.14807430      3.06346699
  H      4.47613870      5.77361027      1.21325028
  H      5.08180104      3.09616005      0.15825773
  H      3.56623294      2.51693062     -0.58726683
  H      4.88916596      3.88302392     -2.20203071
  H      4.92381111      5.23702773     -1.07064094
  H      3.39237977      4.72820651     -1.79759884
  H      0.51210205      4.95466752      3.74205192
  H      0.55848188      3.18430441      3.49596722
  H     -0.32569572      4.21156341      2.35452155
  N      5.75493074      6.74211626      4.23250249
  C      5.31561803      6.73114420      5.48607622
  N      4.26723773      7.53965928      5.58250668
  C      4.02263278      8.07132839      4.35278027
  C      4.96221068      7.57121895      3.50406718
  C      6.84638341      5.95016767      3.72533873
  C      6.48278553      4.46877054      3.74310802
  C      3.46636568      7.76520681      6.74904911
  H      5.82252386      6.25209142      6.30413677
  H      3.18347216      8.71108602      4.17568337
  H      5.13270924      7.72274055      2.45408450
  H      7.03688698      6.27795852      2.70075690
  H      7.71607918      6.13144967      4.36131567
  H      7.28924342      3.89315311      3.29826221
  H      5.57410919      4.29613499      3.17041540
  H      6.33098487      4.12536040      4.76340257
  H      2.43524741      7.48051235      6.50685916
  H      3.49156206      8.81911265      7.02727419
  H      3.84557241      7.16399332      7.57087467
  N      7.96226562     10.12195790      4.57568883
  C      7.74240845     10.56339724      3.33678835
  N      8.24480454      9.69038956      2.47065163
  C      8.83569937      8.68247202      3.18025117
  C      8.66000012      8.95177042      4.49763717
  C      7.60298931     10.80014016      5.79259293
  C      6.42695605     10.10626557      6.46904863
  C      8.18560654      9.76915462      1.04059638
  H      7.16153107     11.42247508      3.07943465
  H      9.32303298      7.86415572      2.69282004
  H      8.91178267      8.38839419      5.37629255
  H      8.47017761     10.78969566      6.45736657
  H      7.37693468     11.83685378      5.53461253
  H      6.16412685     10.62997645      7.38401716
  H      6.70396916      9.08287296      6.71886292
  H      5.56433535     10.09496016      5.80600742
  H      7.84096507     10.75768550      0.74940831
  H      7.50256559      9.00096669      0.66053829
  H      9.17692096      9.59890856      0.62150191
 Cl      7.91000805      6.92387665      7.06923205
 Cl      9.39229980     12.58602247      3.30068602
 Cl      1.69730209      0.88422885     -0.37998544
 Cl      0.92828182      6.92960942      4.88895920
 Cl      6.28211113      7.04090787      0.47298949
