62
Energy =    -96.29700157 au
  N      4.89442795      8.28026367      7.61856447
  C      4.20991704      8.87196051      8.59313825
  N      3.38978970      9.76787038      8.05926582
  C      3.56113996      9.76111829      6.70918721
  C      4.50942880      8.82571025      6.43131180
  C      5.87119074      7.23447609      7.78036207
  C      7.28691984      7.80116166      7.76139316
  C      2.43064706     10.54497081      8.78896178
  H      4.17923016      8.58143260      9.63409314
  H      2.95796071     10.36997766      6.06638824
  H      4.89057469      8.46176257      5.49980200
  H      5.67419812      6.73574574      8.73091502
  H      5.73210609      6.52700999      6.95399398
  H      8.00425052      6.99395160      7.87853587
  H      7.42723604      8.51540071      8.57092969
  H      7.48061853      8.29938982      6.81475055
  H      1.55259631     10.69227770      8.15717290
  H      2.84657692     11.51731383      9.05770149
  H      2.16975507      9.99820296      9.69489634
  N      2.06221849      5.74523906      8.54916146
  C      1.07135035      6.27321935      9.25302170
  N      0.64808110      7.37429101      8.65399398
  C      1.38798101      7.55787839      7.52814377
  C      2.27562526      6.53246210      7.45471460
  C      2.77515320      4.53346649      8.85537496
  C      2.55009216      3.49950585      7.75918499
  C     -0.39082375      8.24609982      9.11620967
  H      0.67149695      5.87004747     10.16046270
  H      1.22060806      8.40619232      6.89217278
  H      3.02364839      6.30166333      6.71920672
  H      3.83993682      4.76759516      8.94897099
  H      2.40955505      4.16744226      9.81647952
  H      2.93877179      2.53262108      8.06723262
  H      3.05586446      3.80874681      6.84911220
  H      1.48278511      3.41334446      7.56814479
  H     -1.33562742      7.70308193      9.15963005
  H     -0.47556128      9.08162904      8.42400265
  H     -0.13713055      8.61227065     10.11187302
  N      1.24590011      5.51587108      4.37181020
  C      0.08210040      5.66772781      4.99635517
  N     -0.22539591      6.95806228      5.02447394
  C      0.75989923      7.65177057      4.39269307
  C      1.68623211      6.74408262      3.98157230
  C      1.92359996      4.27079155      4.12085160
  C      1.68758391      3.80035552      2.68943011
  C     -1.37426471      7.51896278      5.67409256
  H     -0.46259419      4.91332208      5.54222161
  H      0.74475469      8.72277045      4.34396258
  H      2.63472193      6.87337973      3.50411462
  H      2.99180863      4.44170021      4.29717776
  H      1.54868253      3.53284913      4.83124624
  H      2.20993112      2.86260875      2.52340436
  H      2.06403885      4.53473481      1.98136157
  H      0.62546395      3.64675957      2.50495028
  H     -2.22866548      7.53639738      4.99545588
  H     -1.13774933      8.53874472      5.98023142
  H     -1.61169284      6.89626467      6.53714261
 Cl     -0.96682906      4.73217983      7.71827588
 Cl      4.71072143      5.78454118      5.03606209
 Cl     53.96418178    -13.70296085    -44.90264006
 Cl      2.69483464      7.82617098     11.05419515
 Cl      0.29403098     10.48001624      6.14570418
