#B3LYP/6-31+G(d) OPT FREQ

62, Energy =    -96.27467311 au

0 1
  N      3.20506015      8.34977259      0.89694954
  C      3.88501122      7.41888887      0.23558074
  N      5.06021094      7.91883021     -0.13184248
  C      5.14409200      9.19955040      0.32547562
  C      3.98133947      9.46996769      0.97318713
  C      1.87160077      8.24947231      1.44579259
  C      1.55878548      6.84441842      1.94325840
  C      6.10088300      7.22503733     -0.83423819
  H      3.54594676      6.42676482      0.02317301
  H      6.03310857      9.77794004      0.15704205
  H      3.62009565     10.34654368      1.47981497
  H      1.80859456      8.99098027      2.25007396
  H      1.15461413      8.55440692      0.67278751
  H      0.75981121      6.87939421      2.67910535
  H      2.44381767      6.41019686      2.40091757
  H      1.24583949      6.19438096      1.12731918
  H      6.27971877      6.26476424     -0.35125535
  H      7.00271695      7.83987441     -0.79439369
  H      5.81689703      7.05824059     -1.87510261
  N      6.59193086      9.95913940      3.81495494
  C      7.26182170      9.39425555      2.81111117
  N      7.33700350      8.08862613      3.02053213
  C      6.69786176      7.80396265      4.18532627
  C      6.23083460      8.97810539      4.69154548
  C      6.38653505     11.38209405      3.97867396
  C      5.01103764     11.73045578      4.52783899
  C      7.96770039      7.14051845      2.15086895
  H      7.67307640      9.87119934      1.93146409
  H      6.59984652      6.80140492      4.54484050
  H      5.67906888      9.16789891      5.59759228
  H      7.15749389     11.75657941      4.66392037
  H      6.53905941     11.84462071      3.00056647
  H      4.95693369     12.80470873      4.68384842
  H      4.83331634     11.24183623      5.48250707
  H      4.22201728     11.45714197      3.83095019
  H      8.81963942      6.67886483      2.65121882
  H      8.29925044      7.66490927      1.25493346
  H      7.23693683      6.36958617      1.90199437
  N      1.52338897      9.56574609      5.84643827
  C      2.59841401      8.96039622      5.34582019
  N      2.48242747      7.64234259      5.50827959
  C      1.32184305      7.40837452      6.18549106
  C      0.72066488      8.61013372      6.39386993
  C      1.38920598     11.00201762      5.91937495
  C      0.01017631     11.44784836      6.37190146
  C      3.51670895      6.67812206      5.26691401
  H      3.35678058      9.45286504      4.77418668
  H      1.01368305      6.42161368      6.46563337
  H     -0.20360542      8.83538481      6.88262930
  H      2.16269082     11.36278466      6.60613756
  H      1.60540275     11.39139294      4.91591668
  H     -0.03258302     12.53297627      6.33877341
  H     -0.20389006     11.12859387      7.39117547
  H     -0.75369281     11.05800707      5.70201394
  H      3.12476724      5.67624549      5.43089176
  H      4.33466134      6.87049083      5.96414411
  H      3.90375607      6.74639276      4.24822544
 Cl      8.43031780      9.67005765     -0.15520103
 Cl      4.24482105      9.44333867      7.32760490
 Cl      1.93605922     11.31613030      2.71837636
 Cl      1.24064855    -26.01651345     12.11989052
 Cl      4.90118669      5.80429060      2.27522111

