62
Energy =    -96.28679829 au
  N      5.60868885      8.20297346      8.36833380
  C      4.41499935      8.72468108      8.11510333
  N      4.47109037      9.41378667      6.98267580
  C      5.73738119      9.31799744      6.49293320
  C      6.45345251      8.55873234      7.36408094
  C      5.89624370      7.32433951      9.47677573
  C      6.25987436      5.93363545      8.96647415
  C      3.37809291     10.07210158      6.32747070
  H      3.56779421      8.59592686      8.77809262
  H      6.02643652      9.76472992      5.56425307
  H      7.47240793      8.23481599      7.32364515
  H      6.71415110      7.75015114     10.06686496
  H      4.98839585      7.29892172     10.09079895
  H      6.15452983      5.20220235      9.76209010
  H      7.28297411      5.90220091      8.59636744
  H      5.59764533      5.66542916      8.14683942
  H      2.94460253      9.41508476      5.57234487
  H      3.72533340     10.98322104      5.84305444
  H      2.59666179     10.31901104      7.04100609
  N      1.61706662      6.02576158      8.65288801
  C      0.49639430      6.49743060      9.17593733
  N      0.12948428      7.58765476      8.51848514
  C      1.03816768      7.81495901      7.53394618
  C      1.97593544      6.83468092      7.61742085
  C      2.38822247      4.92460931      9.16628051
  C      2.78061244      3.95809293      8.05936266
  C     -1.03626913      8.38787615      8.75460423
  H     -0.02483604      6.07094281     10.00848047
  H      0.92801895      8.65572845      6.87334293
  H      2.86044443      6.66578413      7.03267313
  H      3.27133951      5.34317167      9.65926770
  H      1.77857761      4.41708118      9.91717316
  H      3.32142234      3.11452660      8.48063887
  H      3.41537367      4.44809843      7.32665411
  H      1.88207644      3.59188856      7.56861846
  H     -1.93146362      7.78187945      8.60902759
  H     -1.03102123      9.21497675      8.04625085
  H     -1.02478864      8.77833932      9.77263649
  N      1.54438160      5.68976195      4.49141143
  C      0.29967648      5.78116842      4.95109409
  N     -0.11751027      7.03256649      4.81386296
  C      0.87882583      7.76371831      4.24616229
  C      1.92629746      6.91845419      4.04467583
  C      2.36055553      4.50532730      4.44345407
  C      2.40318695      3.92917507      3.03174781
  C     -1.38667978      7.53989955      5.24557317
  H     -0.25514534      5.02705907      5.48999303
  H      0.77331556      8.82308250      4.11043302
  H      2.91481480      7.09346843      3.67453422
  H      3.36586076      4.79190453      4.77404946
  H      1.94123994      3.77693126      5.13795230
  H      3.02908498      3.04151362      3.01952930
  H      2.82031324      4.65434522      2.33713310
  H      1.40339011      3.65718070      2.69651252
  H     -2.11329405      7.49316474      4.43280703
  H     -1.25146221      8.58115052      5.54663927
  H     -1.73279644      6.92588362      6.07701789
 Cl     -1.25739733      4.87308346      7.47373168
 Cl      4.77735231      6.37108269      5.71698864
 Cl     51.12383014    -12.52456664    -41.50497206
 Cl      2.83905229      7.90415598     10.74841042
 Cl      0.11001502     10.52276973      5.77657674
