62
Energy =    -96.25756969 au
  N      5.96972998      4.57987091      1.22265049
  C      5.77417716      4.95725813      2.47852601
  N      4.47428633      5.08830881      2.69725178
  C      3.81013871      4.78174756      1.55073167
  C      4.75015391      4.46065935      0.62352668
  C      7.25932867      4.32321435      0.64070953
  C      7.73599831      2.91935056      0.99995009
  C      3.86221416      5.38606204      3.95831689
  H      6.55065050      5.14793911      3.18794158
  H      2.73702596      4.77197090      1.52053178
  H      4.64692745      4.16887611     -0.40129006
  H      7.17766716      4.44856836     -0.44221706
  H      7.93454891      5.09128880      1.02861611
  H      8.79416992      2.80812033      0.77791991
  H      7.17825128      2.16966771      0.44135313
  H      7.56915873      2.73898575      2.05985676
  H      4.27963150      4.70589472      4.70146742
  H      2.78833030      5.22208278      3.86428422
  H      4.06527657      6.41769925      4.24778881
  N      7.70074481      4.59549773      6.26416742
  C      8.07171867      5.78792279      5.79544422
  N      8.85259096      5.62313951      4.73309787
  C      9.03744517      4.28216990      4.55811568
  C      8.32442999      3.64078651      5.51891749
  C      6.90393124      4.40590315      7.45685377
  C      6.36059697      2.99127637      7.56568981
  C      9.44801866      6.67793563      3.96513241
  H      7.70865667      6.73040706      6.14744608
  H      9.64529467      3.89080852      3.76900954
  H      8.19453561      2.59506290      5.69229650
  H      7.53559380      4.66137645      8.31571077
  H      6.08149789      5.12687546      7.41903969
  H      5.58762753      2.94070892      8.32795875
  H      7.14734372      2.29106041      7.83548640
  H      5.93206144      2.68458612      6.61401402
  H     10.33117243      6.29690188      3.45621925
  H      9.73838462      7.47932387      4.64216993
  H      8.73808038      7.05850663      3.21740448
  N      3.03638380      0.99563143      4.35943260
  C      2.58462747      2.17130364      4.78819311
  N      2.89590400      2.30362186      6.07109905
  C      3.57292299      1.19762011      6.47769756
  C      3.66141301      0.37505487      5.39990264
  C      2.88147943      0.46204169      3.02815864
  C      3.21652412      1.50884349      1.97636055
  C      2.59191767      3.41220903      6.92926650
  H      2.02934563      2.88044909      4.18424391
  H      3.86938300      1.08743317      7.50691627
  H      4.13476192     -0.57879997      5.29232618
  H      3.55431954     -0.39589042      2.94276259
  H      1.84782829      0.11485571      2.90572675
  H      3.24630648      1.05369280      0.98943341
  H      4.18811448      1.93770689      2.20720117
  H      2.47269017      2.30041774      1.98066053
  H      3.37137549      4.17114853      6.85451198
  H      2.56618620      3.03800513      7.95985373
  H      1.63840038      3.85107507      6.64383311
 Cl      9.89765973      6.38413576      7.56472377
 Cl      0.77850186      4.07357281      2.83872226
 Cl      7.16912045      7.41278415      1.64115188
 Cl      5.85700721      2.54658920      3.99062576
 Cl      3.15525815      1.63049331      9.67563769
