62
Energy =    -96.27264677 au
  N      5.22281284      9.04821843      5.86489911
  C      4.13857873      8.29250465      5.75058179
  N      4.13634388      7.71165304      4.56084872
  C      5.25519294      8.10702241      3.89251911
  C      5.94157177      8.94601233      4.71132328
  C      5.61177914      9.79126017      7.03366129
  C      6.42902967      8.90677115      7.97104519
  C      3.10222342      6.84509130      4.08399735
  H      3.38390058      8.16610554      6.49782700
  H      5.46634638      7.76729479      2.89950233
  H      6.86183654      9.48501386      4.57181088
  H      6.19920355     10.65281403      6.70770489
  H      4.70094861     10.14248489      7.52399721
  H      6.52828715      9.37449845      8.94671938
  H      7.41958997      8.73999233      7.55611266
  H      5.93593112      7.94350043      8.08015232
  H      3.32946431      6.52923236      3.06830286
  H      2.15544230      7.38789182      4.09993958
  H      3.03878927      5.97574959      4.74114653
  N      9.03162213      5.88213560      6.96255567
  C     10.16715407      6.49112273      6.63904719
  N      9.95377121      7.25424357      5.57279922
  C      8.64478113      7.12649780      5.20998446
  C      8.06020908      6.26703019      6.08729144
  C      8.88088451      4.97703590      8.07628624
  C      7.85561714      5.50649307      9.07037637
  C     10.90499165      8.10051762      4.91153963
  H     11.10165591      6.32090488      7.17398335
  H      8.23969114      7.66772354      4.38166520
  H      7.03377453      5.95155467      6.18039442
  H      8.55244065      4.00697030      7.69208669
  H      9.87019366      4.87071615      8.53208798
  H      7.77040037      4.81775906      9.90619312
  H      6.88097949      5.60173631      8.59569907
  H      8.16307463      6.47836437      9.44894733
  H     11.75747515      8.26750747      5.56555155
  H     10.42171522      9.05137506      4.66707703
  H     11.24602936      7.63631621      3.98434995
  N      6.29883222      9.99401340      1.01277800
  C      6.38454152     10.77483906      2.08573865
  N      5.15858431     11.06999826      2.50203179
  C      4.26628547     10.46457272      1.66840629
  C      4.98487565      9.78646872      0.73051063
  C      7.40975452      9.42511952      0.28746756
  C      8.20692691      8.48133805      1.18041600
  C      4.82852109     11.87963369      3.63805701
  H      7.29770979     11.04467392      2.59605988
  H      3.21190639     10.53686378      1.83750894
  H      4.70492579      9.20797651     -0.13692682
  H      6.98811256      8.90737601     -0.58414049
  H      8.05491342     10.23899529     -0.05520493
  H      9.06332956      8.10072944      0.63116896
  H      7.59322044      7.63740004      1.48600250
  H      8.56098327      9.00414280      2.06722032
  H      4.00828513     11.40361543      4.19291143
  H      4.49999998     12.86894601      3.31431601
  H      5.70663234     11.97922047      4.27080526
 Cl      2.29605367     10.22310395      4.89957030
 Cl      4.89368834      5.81715320      6.97430385
 Cl      5.39285817      8.33700930     -2.13928594
 Cl      8.82133776     10.69548824      4.17623778
 Cl     12.39788817      5.30047474      8.48454345
