#B3LYP/6-31+G(d) OPT FREQ

62, Energy =    -96.26768138 au

0 1
  N      7.10497049      6.29704354      0.87709973
  C      6.44911835      5.80416498      1.93007590
  N      6.37782790      6.74785641      2.86895918
  C      6.98369359      7.87388830      2.40126172
  C      7.44146906      7.59127785      1.15263193
  C      7.38961175      5.55095872     -0.32109756
  C      6.32816408      5.79847277     -1.38799619
  C      5.76754429      6.63022152      4.16124143
  H      6.19273373      4.75537178      2.01153764
  H      7.09849975      8.73494237      3.03358774
  H      7.97383430      8.20395062      0.45483945
  H      8.37607321      5.84383823     -0.68733275
  H      7.40014780      4.49222921     -0.03286421
  H      6.56933823      5.22971087     -2.28103324
  H      6.27329878      6.85453721     -1.64835857
  H      5.35593913      5.47437893     -1.02643825
  H      5.78746098      5.59186171      4.48208119
  H      4.73249231      6.97640580      4.12439207
  H      6.32944896      7.26935260      4.85274583
  N     10.08853855      6.94862167      3.54875584
  C      9.45372595      6.21613031      4.46118986
  N      9.04109590      5.08362579      3.89444822
  C      9.50536581      5.04872657      2.61282009
  C     10.15706240      6.21844297      2.39323386
  C     10.68441476      8.23802409      3.78791275
  C     12.13939588      8.08822470      4.21758201
  C      8.40753383      3.98427994      4.56039849
  H      9.16179439      6.57596900      5.42620709
  H      9.29079459      4.21511005      1.97386386
  H     10.66356883      6.58319239      1.52349525
  H     10.60128340      8.82898258      2.87072019
  H     10.09307244      8.72106130      4.56850479
  H     12.51950622      9.02960831      4.60364175
  H     12.75916659      7.77219925      3.38056016
  H     12.20147700      7.32934926      4.99415437
  H      9.16979875      3.39300459      5.07237791
  H      7.90008393      3.37157757      3.81367534
  H      7.70564383      4.35713363      5.30370741
  N      7.11458259      7.69098115      8.11317792
  C      8.28236942      8.32716269      8.19748583
  N      9.26747458      7.46290010      7.97751278
  C      8.71885149      6.22206272      7.82070812
  C      7.37149620      6.36603468      7.90294215
  C      5.85907423      8.35675294      8.35083779
  C      4.66992593      7.41260915      8.33276437
  C     10.67274297      7.74752156      7.97980422
  H      8.39546345      9.38862877      8.25944036
  H      9.33403448      5.36540947      7.62957141
  H      6.59700804      5.63220074      7.82796293
  H      5.95283418      8.84144163      9.33023324
  H      5.74400673      9.12869353      7.58211376
  H      3.76290223      7.98031455      8.52512825
  H      4.77174410      6.65681291      9.10781000
  H      4.57270787      6.92637580      7.36373537
  H     10.85160308      8.70816400      7.49811592
  H     11.18457928      6.95492031      7.43090835
  H     11.03929291      7.79062332      9.00725727
 Cl     11.36589913      5.13001722      5.84752442
 Cl      7.74836049      8.95581587      5.30673100
 Cl      8.21762364      8.65509130     10.74029514
 Cl      7.07200621      2.82271801      1.54473789
 Cl    -21.76782469     -6.29588816    -13.90062395

