#B3LYP/6-31+G(d) OPT FREQ

62, Energy =    -96.28610000 au

0 1
  N      3.50633149      7.48365231      6.35950599
  C      3.71829257      7.40796763      7.67160756
  N      4.62268973      6.46631506      7.90956416
  C      4.99662661      5.91787971      6.72324423
  C      4.29877859      6.56060630      5.74657538
  C      2.59739771      8.37100591      5.66973963
  C      2.74893371      9.80701949      6.15110347
  C      5.10576967      6.07126905      9.19971649
  H      3.24499222      7.97988451      8.45637230
  H      5.68862171      5.10347849      6.67203639
  H      4.29220253      6.44002706      4.67514884
  H      2.82444552      8.29177689      4.60344814
  H      1.56342089      8.03600731      5.82551572
  H      2.05873930     10.44140793      5.60276028
  H      3.76278313     10.16604963      5.98305746
  H      2.52056688      9.88668631      7.21060229
  H      6.15763098      6.33934020      9.30569570
  H      5.00364197      4.98525918      9.28471077
  H      4.52033785      6.58295383      9.96121575
  N      1.86471198      5.12910366     10.03032217
  C      1.08471224      6.18503714     10.24586311
  N      0.56841520      6.58221096      9.08807578
  C      1.04968713      5.77068755      8.10255441
  C      1.85801705      4.85441787      8.69398549
  C      2.59579962      4.37459932     11.01616006
  C      1.66571543      3.45898101     11.80619370
  C     -0.22777792      7.75579978      8.87525546
  H      0.88498194      6.62994007     11.19800605
  H      0.74002757      5.91273343      7.08346277
  H      2.47816908      4.06850641      8.30141833
  H      3.33452381      3.77630510     10.47340744
  H      3.10273328      5.07505702     11.68380582
  H      2.24368841      2.89108929     12.52956785
  H      1.17247560      2.76009862     11.13492530
  H      0.90781345      4.03269791     12.33710056
  H      0.35193092      8.62895929      9.17980402
  H     -1.14360345      7.71286258      9.46543989
  H     -0.47512375      7.81588893      7.81497034
  N      1.89961792      4.05142573      3.85964050
  C      1.48319418      5.31213245      3.76468555
  N      0.68568103      5.43307440      2.70872847
  C      0.65387169      4.23469564      2.06222510
  C      1.40866133      3.36670067      2.78391365
  C      2.74037583      3.50035175      4.89438269
  C      1.96212222      2.57769170      5.82254110
  C      0.13228892      6.68037859      2.27453151
  H      1.61353475      6.07925093      4.49871920
  H      0.10733394      4.08974006      1.15279024
  H      1.63715337      2.33507878      2.61333965
  H      3.56544463      2.95900261      4.42413334
  H      3.15695015      4.32886235      5.46725432
  H      2.61311319      2.29040722      6.64448951
  H      1.62938074      1.68060033      5.30369595
  H      1.09379705      3.09590141      6.22868850
  H     -0.59862814      6.51234144      1.48714607
  H      0.94572705      7.31213371      1.91092879
  H     -0.33307444      7.16770021      3.13351039
 Cl      3.51721096      6.44470903      2.57132003
 Cl      4.41257623      2.86087222      8.47416910
 Cl     32.45762676     -5.32626696    -27.81669152
 Cl      2.75761407      8.33506519     10.59248828
 Cl     -0.57253799      7.00360538      5.52705701

