#B3LYP/6-31+G(d) OPT FREQ

62, Energy =    -96.25238452 au

0 1
  N      7.57370354      2.55760704     13.70753428
  C      6.65792208      1.62992065     13.45385158
  N      6.72945622      1.29857851     12.16904173
  C      7.71951889      2.04113760     11.58889641
  C      8.25100624      2.83219973     12.55895776
  C      7.86092278      3.16074946     14.98745028
  C      8.41334676      2.12084421     15.95467322
  C      5.89628112      0.31117075     11.54158142
  H      5.95727525      1.14416592     14.13015202
  H      7.96694209      1.95404846     10.55163932
  H      9.04047995      3.57338298     12.56668250
  H      8.60363735      3.94935421     14.80385523
  H      6.94127352      3.59568113     15.38714259
  H      8.61510980      2.58974264     16.91401153
  H      9.34457249      1.71490513     15.56791416
  H      7.70293709      1.30896874     16.09791047
  H      5.28379292     -0.14811473     12.32697413
  H      6.51201391     -0.44927850     11.06002329
  H      5.25083996      0.77480200     10.79396146
  N      5.37320371      2.14716970     -1.10311936
  C      4.97621901      2.25745597     -2.36718673
  N      4.98917790      1.05438277     -2.92862931
  C      5.39721528      0.14381695     -2.00398100
  C      5.63783024      0.82986359     -0.85409156
  C      5.46233464      3.24352053     -0.16957356
  C      4.35115461      3.16327817      0.87161745
  C      4.64357072      0.72257323     -4.28260362
  H      4.74019235      3.21205328     -2.82122614
  H      5.46615485     -0.90231290     -2.28002811
  H      5.98000285      0.48601617      0.09977598
  H      6.44039896      3.21173083      0.31812715
  H      5.37171550      4.16700447     -0.75470754
  H      4.44513924      3.99379597      1.56516154
  H      4.40522330      2.23094599      1.43133974
  H      3.38011040      3.22508740      0.38638770
  H      3.60693982      0.99106347     -4.48475989
  H      4.77746183     -0.36226168     -4.39859002
  H      5.28962908      1.25705452     -4.97807296
  N      2.38892400      6.10733970     -0.04637605
  C      1.79359926      6.00929255      1.14369038
  N      2.65842493      6.39743506      2.09014021
  C      3.78834355      6.85776183      1.46401393
  C      3.61943440      6.67399824      0.13251200
  C      1.80855795      5.82179338     -1.33424113
  C      1.09569058      7.05639013     -1.87729460
  C      2.31014378      6.55833245      3.47116539
  H      0.87587042      5.49215978      1.32933335
  H      4.60833991      7.27372899      2.01195798
  H      4.27615742      6.83466008     -0.69911953
  H      2.62724425      5.52196799     -1.99687562
  H      1.10101888      4.99759312     -1.21794971
  H      0.51930602      6.79713602     -2.76057777
  H      1.82152448      7.81997575     -2.14290576
  H      0.43100609      7.45813686     -1.11587232
  H      3.13380351      7.02566629      4.00558539
  H      2.07783789      5.59314659      3.92417908
  H      1.42290497      7.19791250      3.51489859
 Cl      5.21389789     -2.46764747     -3.79641551
 Cl      4.91784056      5.39750747     -2.67368153
 Cl      4.56138807     -0.43800597     14.47875357
 Cl     10.22463794      5.08675297     13.65415929
 Cl      0.16197657      7.90983555      1.42305492

