#B3LYP/6-31+G(d) OPT FREQ

62, Energy =    -96.27609826 au

0 1
  N      8.85431464     12.57284144      4.35430664
  C      8.49755420     13.21376676      5.46336594
  N      9.38158565     12.94174057      6.41600287
  C     10.33315454     12.11324358      5.90123407
  C     10.00318477     11.88491755      4.60019857
  C      8.16859284     12.61769955      3.08823343
  C      8.66762659     13.79021756      2.25065446
  C      9.33527054     13.41825412      7.76760416
  H      7.56861077     13.76026487      5.62123355
  H     11.11862220     11.72370056      6.51560267
  H     10.43175517     11.25246216      3.84660950
  H      8.37353233     11.66872263      2.57787088
  H      7.10030481     12.72035823      3.28341591
  H      8.15384370     13.79769994      1.29395998
  H      9.73527871     13.69333128      2.06791518
  H      8.47691883     14.73348446      2.75987924
  H     10.07795604     14.20466640      7.91604439
  H      9.57390843     12.58133294      8.43538075
  H      8.34198921     13.81305854      7.96992504
  N      1.87941068     -4.46448415      5.54347820
  C      3.17371857     -4.59203248      5.27357005
  N      3.56365087     -3.55207037      4.54523517
  C      2.48368618     -2.73781533      4.34740526
  C      1.42455854     -3.31251505      4.97956542
  C      1.07363193     -5.35175498      6.34684332
  C      1.47671138     -5.25195914      7.81369399
  C      4.90333327     -3.35710609      4.06574163
  H      3.86299389     -5.38637156      5.55298890
  H      2.54948493     -1.82699435      3.78657665
  H      0.37842508     -3.04962251      5.06696517
  H      0.02902968     -5.03938478      6.20926735
  H      1.21225809     -6.37411141      5.98721697
  H      0.86773577     -5.93094552      8.40454286
  H      1.31383155     -4.23931024      8.17692365
  H      2.52542932     -5.51332885      7.94360502
  H      5.32022749     -2.43420978      4.46975678
  H      4.91193076     -3.30598350      2.97684405
  H      5.50062786     -4.21265044      4.40277395
  N      8.36862741      9.37226317      5.70109874
  C      8.15333525      9.90866463      6.89851165
  N      7.02889385     10.61489129      6.85594381
  C      6.50865617     10.51970560      5.59997875
  C      7.35070918      9.73312598      4.87428476
  C      9.47517195      8.52366881      5.33873366
  C      9.10595456      7.05529281      5.52381578
  C      6.46341574     11.36317483      7.94149862
  H      8.85072105      9.89219401      7.73533572
  H      5.61302919     11.03815651      5.32699583
  H      7.35622381      9.45464305      3.83890316
  H      9.70937164      8.72959455      4.28718635
  H     10.32179867      8.78690148      5.97428175
  H      9.94576543      6.43046175      5.23433685
  H      8.25433177      6.79882456      4.89776742
  H      8.85734903      6.84883197      6.56368573
  H      5.57052627     10.86242787      8.31902764
  H      6.17721402     12.35985973      7.57929864
  H      7.20015483     11.44057940      8.73700160
 Cl     -1.69077587     -3.67949108      5.57687092
 Cl      9.38482439      9.66537391      2.21694831
 Cl      5.83660159     -6.20798562      5.47555020
 Cl     10.38131639     10.54858494      9.01011112
 Cl      5.66102292     14.16980038      6.36831822

