#B3LYP/6-31+G(d) OPT FREQ

62, Energy =    -96.26228986 au

0 1
  N      4.51950652      6.78265830      3.33572115
  C      5.12224303      5.60312380      3.16683325
  N      6.08955531      5.73955158      2.26487786
  C      6.15529321      7.04729867      1.88738137
  C      5.17567431      7.70280646      2.55746612
  C      3.48247022      7.08438291      4.29003336
  C      4.08339386      7.71396176      5.54238153
  C      7.00182438      4.72912036      1.81499832
  H      4.79512712      4.67975931      3.59597554
  H      6.85754867      7.35309360      1.12816832
  H      4.88973838      8.73388033      2.54386402
  H      2.76152645      7.76068546      3.81866459
  H      2.97454652      6.15217135      4.54558626
  H      3.31978504      7.85378016      6.30063892
  H      4.53033197      8.67738029      5.30843179
  H      4.86125594      7.05535925      5.92470613
  H      7.72899088      4.52346302      2.60204788
  H      7.50849910      5.11275748      0.92332046
  H      6.46324851      3.81150297      1.58125665
  N     -1.00789826      3.56483692      8.33627252
  C     -0.01482577      2.80675705      8.78879916
  N      0.46952639      3.35660317      9.89682378
  C     -0.23746950      4.49121068     10.16117385
  C     -1.17182131      4.61952486      9.17987542
  C     -1.79447075      3.29907438      7.16001692
  C     -3.02679972      2.47386272      7.51599148
  C      1.56359562      2.87365910     10.68637324
  H      0.38842837      1.95394592      8.24380433
  H      0.02389203      5.12825445     10.98044636
  H     -1.87660116      5.39691749      8.95845294
  H     -2.08944470      4.26658414      6.74106201
  H     -1.16497193      2.74907324      6.45850002
  H     -3.61642990      2.29784682      6.62110911
  H     -3.64322946      3.00362536      8.23954839
  H     -2.73092291      1.51308641      7.93326359
  H      1.19770665      2.46227037     11.62885724
  H      2.22007754      3.72575994     10.90431322
  H      2.09679114      2.10502719     10.13451135
  N      2.82601231      4.31053188      6.91516788
  C      2.71804414      5.32109745      7.77330203
  N      1.55073628      5.92755361      7.58428535
  C      0.88996736      5.29009588      6.58217513
  C      1.69073997      4.26965633      6.16568567
  C      3.95450795      3.42095844      6.77402335
  C      4.09116985      2.51430788      7.98896629
  C      1.05235355      7.06148254      8.30754810
  H      3.41965205      5.58867282      8.54057440
  H     -0.09138917      5.61232980      6.28181674
  H      1.52005135      3.49497205      5.44683740
  H      3.77287145      2.80537711      5.89171951
  H      4.85979039      4.01825450      6.60977554
  H      5.00343946      1.93111172      7.90262658
  H      3.24236949      1.83401436      8.01924354
  H      4.13242951      3.09874946      8.90439677
  H      1.30134497      6.93921921      9.36348128
  H     -0.02504470      7.12183529      8.15692424
  H      1.51639567      7.97885261      7.94101407
 Cl      7.96598307      6.65176538     -0.77995557
 Cl      6.45832807      5.29773219      5.40656404
 Cl      1.11427010      0.88400199      6.61382324
 Cl      2.66518606      5.90839291     11.01089276
 Cl     -2.15924867      6.64592801      6.84480877

