62
Energy =    -96.28290385 au
  N      2.76674647      2.63911310      1.64244896
  C      3.38509801      2.87179360      2.79500563
  N      4.41837668      2.04642757      2.90768670
  C      4.45436006      1.25402203      1.80237603
  C      3.41363659      1.62582725      1.00561883
  C      1.62371311      3.34963626      1.13148348
  C      0.34438729      2.54396826      1.33016904
  C      5.36374502      2.06287492      3.98623095
  H      3.19189172      3.68190460      3.48205975
  H      5.22800698      0.52855378      1.65500963
  H      3.12655114      1.31814508      0.02105612
  H      1.55993520      4.30393542      1.65774177
  H      1.80930237      3.51891086      0.06047156
  H     -0.49635554      3.08846870      0.91064823
  H      0.15571597      2.36771955      2.38860196
  H      0.42119686      1.58647747      0.82078771
  H      6.35716635      1.84169127      3.58856181
  H      5.10269751      1.31899885      4.73929208
  H      5.34955557      3.05534972      4.43417322
  N      4.76115991      5.44096016     -0.01642146
  C      5.22092720      4.86260298     -1.11595766
  N      5.93143854      3.79753529     -0.78294871
  C      5.93051166      3.68733559      0.57136978
  C      5.19792701      4.72197752      1.05935151
  C      4.01529153      6.66864617      0.05593611
  C      4.85254306      7.74564586      0.74109600
  C      6.56611383      2.90375168     -1.70296925
  H      5.06450423      5.20998656     -2.11598643
  H      6.46831003      2.89937495      1.06402200
  H      4.94176810      4.99975174      2.06488898
  H      3.75951527      6.96345702     -0.96349383
  H      3.09233200      6.48969167      0.61518247
  H      4.39974946      8.72311960      0.60664650
  H      5.84923247      7.74896041      0.30710065
  H      4.92962650      7.53551308      1.80366668
  H      7.04225552      2.10253310     -1.14200321
  H      7.31324501      3.45127215     -2.27950301
  H      5.81085067      2.49213969     -2.37531007
  N      8.30890912      5.94423800      2.63836070
  C      8.51851189      4.75444188      2.08437152
  N      9.46001489      4.86387697      1.15693025
  C      9.86263970      6.16029001      1.10389440
  C      9.15182174      6.83872708      2.04559074
  C      7.38359015      6.25408564      3.69861690
  C      8.07118390      6.21267558      5.06404409
  C      9.83717844      3.84081117      0.23080538
  H      8.03734423      3.82415382      2.34150900
  H     10.58853415      6.50581133      0.39716817
  H      9.15751418      7.87444584      2.31188711
  H      6.97361155      7.25269976      3.51314645
  H      6.55574475      5.53815597      3.67875694
  H      7.32811656      6.40680199      5.83262045
  H      8.85860583      6.96499279      5.13921047
  H      8.49816897      5.22520191      5.24012811
  H      9.42584192      4.11768885     -0.74211466
  H      9.40799956      2.89554006      0.56428600
  H     10.92310612      3.76672191      0.16587941
 Cl     -1.77859298     12.82811431     44.69047912
 Cl      7.89235783      6.23090031     -1.09986231
 Cl      2.99430400      3.24933985     -1.82182867
 Cl      4.25464738      5.41750451      4.35102154
 Cl      8.04679299      1.49410161      2.07279397
