62
Energy =    -96.27261567 au
  N      1.92247439      5.02114727      4.30593519
  C      0.92914380      5.78869246      4.73833323
  N      1.26595329      7.06440023      4.56670951
  C      2.50303845      7.10983334      3.99678458
  C      2.91494705      5.82151004      3.83283761
  C      1.94666493      3.58265474      4.34578124
  C      1.06195529      2.99273231      3.25208058
  C      0.47119362      8.20325643      4.92793025
  H      0.06550094      5.42278983      5.26169060
  H      2.98602627      8.04966375      3.80862525
  H      3.82369200      5.38677234      3.45697971
  H      2.98259466      3.26912078      4.19452011
  H      1.58478757      3.27710701      5.33259939
  H      1.10206442      1.90850077      3.30564380
  H      1.41480795      3.30165167      2.26982239
  H      0.02779924      3.30994283      3.37752920
  H     -0.25755874      8.42566823      4.14548583
  H      1.14010709      9.06372704      5.04241397
  H     -0.05179347      7.99904366      5.85973597
  N      4.44688153      5.86514258      6.99048659
  C      5.23355485      6.93665947      7.07833583
  N      4.48475271      8.01632835      7.24778158
  C      3.18205329      7.62970625      7.27803406
  C      3.15479736      6.27695115      7.11837356
  C      4.90812685      4.51406800      6.76813381
  C      4.21805593      3.52988252      7.70191744
  C      4.96557447      9.35973832      7.37245996
  H      6.31404293      6.97180818      7.03866437
  H      2.38893128      8.33966754      7.38178296
  H      2.31339377      5.60545615      7.12080500
  H      4.73521225      4.23218015      5.72143925
  H      5.98789221      4.51012075      6.93158575
  H      4.55399478      2.52270472      7.47289039
  H      3.13941917      3.56680803      7.58319656
  H      4.46023140      3.75215708      8.73979540
  H      4.71827647      9.75388123      8.35687734
  H      4.47968593      9.97087331      6.61034360
  H      6.04803194      9.35417201      7.23893379
  N      5.81727364      7.12765848      2.11150669
  C      5.78417757      8.45951518      2.10156761
  N      6.19086841      8.90000612      3.29001443
  C      6.48553974      7.82825007      4.07723032
  C      6.24853679      6.71299590      3.33515411
  C      5.47391363      6.25712953      1.01471242
  C      4.13988570      6.65812881      0.38986118
  C      6.20473670     10.26324294      3.73742150
  H      5.57418456      9.05175604      1.21504925
  H      6.89649825      7.94788786      5.06487759
  H      6.32899707      5.67018841      3.58219084
  H      6.25166153      6.32555076      0.24384462
  H      5.43982922      5.23606785      1.41001187
  H      3.84506451      5.90180485     -0.32777625
  H      4.25469869      7.61112441     -0.12558734
  H      3.37283976      6.74554559      1.15773860
  H      5.20129486     10.54152782      4.07684006
  H      6.50463825     10.92438366      2.92432777
  H      6.89560447     10.34838274      4.57733334
 Cl      5.61550408      9.56692189     -0.89246695
 Cl      8.14430921      8.25887931      7.03310876
 Cl      2.92305880     10.38941112      4.94470063
 Cl      5.22527579      3.50678362      3.44267572
 Cl      0.46543685      4.23697030      7.32669905
