#B3LYP/6-31+G(d) OPT FREQ

62, Energy =    -96.23930917 au

0 1
  N      6.21773891      6.60006280      5.57956655
  C      5.24484873      7.51126194      5.53759596
  N      4.34403995      7.15002670      4.62503530
  C      4.70303776      5.92781533      4.13888646
  C      5.87559064      5.58516425      4.73205847
  C      7.36988618      6.61838797      6.45084261
  C      7.01286493      6.10724988      7.84236947
  C      3.10087835      7.82933690      4.40961694
  H      5.26594103      8.45918418      6.03417373
  H      4.10632839      5.39869659      3.42434772
  H      6.47941284      4.70809974      4.61912909
  H      8.14111392      5.98742261      6.00084095
  H      7.75088150      7.64343158      6.50381846
  H      7.81756259      6.33423976      8.53509394
  H      6.84481645      5.03197176      7.83112366
  H      6.10040832      6.58939225      8.18303682
  H      2.44163016      7.61248764      5.25283374
  H      2.64316265      7.48870975      3.48385084
  H      3.27581815      8.90726382      4.37887352
  N      4.00132825     10.88164462      7.78121489
  C      4.62792310     11.79413413      7.04358708
  N      5.89971343     11.43987678      6.89944264
  C      6.08468288     10.24690872      7.52975242
  C      4.89439082      9.89393787      8.08492535
  C      2.59894418     10.86763687      8.12005825
  C      1.84016239      9.94062239      7.17852969
  C      6.90123188     12.13504240      6.14503517
  H      4.18306533     12.68622349      6.65200306
  H      7.04229077      9.75988744      7.50674197
  H      4.59766918      8.99902849      8.59531928
  H      2.50211006     10.52243369      9.15322956
  H      2.22051101     11.89095800      8.04460987
  H      0.77963115      9.95385548      7.41288478
  H      2.22058854      8.92656328      7.28344222
  H      1.98647385     10.26704685      6.15224273
  H      6.51873612     12.32988500      5.14407052
  H      7.78125739     11.49209886      6.08590692
  H      7.16244227     13.07828233      6.62675780
  N      7.81464012      8.58738626      3.10245521
  C      6.71964132      8.24544746      2.37811807
  N      5.94034432      9.34684781      2.23801261
  C      6.56837433     10.38488034      2.86664418
  C      7.72481132      9.91775384      3.39575110
  C      8.93122740      7.75228967      3.44670039
  C     10.05244478      7.87446109      2.41592405
  C      4.65562683      9.43268818      1.61293429
  H      6.48182415      7.26284009      2.03272727
  H      6.11532160     11.35205580      2.90972064
  H      8.46486156     10.38964058      4.00797393
  H      9.28479369      8.08535290      4.42890139
  H      8.58797795      6.71675862      3.50929373
  H     10.88835221      7.24446891      2.70637529
  H     10.39883652      8.90331804      2.36243316
  H      9.70749286      7.56853725      1.42939981
  H      4.72794983      9.93112671      0.64238297
  H      4.00104572     10.01917654      2.26356541
  H      4.24296998      8.43599663      1.47191492
 Cl      3.90717515     11.14580133      4.42800775
 Cl      3.68759309      6.91587008      7.54832438
 Cl      9.11592549      9.53260005      6.30823096
 Cl     29.95202706     -5.77968524    -18.59022951
 Cl    -30.43739551    -52.14837349     -3.25023203

