#B3LYP/6-31+G(d) OPT FREQ

62, Energy =    -96.08624677 au

0 1
  N      5.11014165      0.72158399      6.47843251
  C      5.06008017      1.14056565      7.74850438
  N      6.28008274      1.00922712      8.27883373
  C      7.12971737      0.52464178      7.32353866
  C      6.39137282      0.34381772      6.18449878
  C      3.99243794      0.75609549      5.52818321
  C      4.29371020      1.67089689      4.35585753
  C      6.68737712      1.49552391      9.59207737
  H      4.20987760      1.57736817      8.24040936
  H      8.17650248      0.37354803      7.51324076
  H      6.68523406      0.01162923      5.20611225
  H      3.80799644     -0.26757417      5.20356257
  H      3.12517896      1.10120589      6.08629252
  H      3.43819790      1.67283122      3.68184478
  H      5.16969573      1.33609827      3.80426682
  H      4.47966898      2.68418916      4.69795129
  H      7.27168984      2.40174068      9.45749099
  H      7.27247191      0.72446635     10.08589798
  H      5.79967727      1.73136248     10.16791012
  N      4.86828394      7.53180956      8.15634169
  C      3.77723513      6.78191502      7.96036971
  N      2.71117783      7.58839273      7.96493414
  C      3.13071183      8.87799324      8.13875122
  C      4.49443914      8.84348009      8.25841131
  C      6.24955293      7.03633345      8.16141515
  C      7.05878719      7.64828441      7.03330611
  C      1.34837919      7.18934679      7.63248211
  H      3.75971272      5.72607951      7.75908461
  H      2.44662208      9.70660365      8.13762205
  H      5.20647863      9.63930623      8.37504891
  H      6.67664154      7.26959875      9.13634049
  H      6.18847552      5.95500849      8.06276838
  H      8.07139724      7.24889961      7.06951268
  H      7.10929486      8.73150520      7.12148082
  H      6.61643029      7.41024036      6.07100396
  H      1.12115027      7.54249008      6.63027429
  H      0.66836176      7.62173266      8.36141504
  H      1.28815262      6.10703755      7.64639906
  N      8.84478955      4.92670633      3.90910703
  C      8.56308004      5.47242503      2.72000434
  N      7.26887230      5.26094648      2.46075844
  C      6.70825883      4.59362645      3.51417534
  C      7.70340686      4.38310854      4.43103109
  C     10.14552597      4.98956827      4.58553847
  C     10.04845754      5.74500802      5.89773608
  C      6.52827323      5.82723188      1.33923449
  H      9.23584932      6.04663502      2.10904138
  H      5.66264076      4.34790323      3.54380997
  H      7.67383043      3.92532430      5.40237173
  H     10.48607484      3.96528628      4.73443330
  H     10.82719973      5.48153131      3.89559749
  H     11.03375554      5.77419596      6.36091439
  H      9.35594345      5.26292963      6.58455319
  H      9.70325884      6.76059145      5.73100824
  H      5.91676493      6.64588862      1.70885919
  H      5.91180756      5.04926861      0.89711720
  H      7.23487012      6.21513017      0.61434142
 Cl      0.21439900     11.65718294     25.04664859
 Cl      7.63070109      3.26181546      1.34868560
 Cl      3.57621155      5.35917460      2.65151692
 Cl      6.81949313      4.95393838     11.63485788
 Cl     -9.36565811    -27.58039129     -4.06056858

