#B3LYP/6-31+G(d) OPT FREQ

62, Energy =    -96.26753246 au

0 1
  N      1.65766088      7.37923949      1.29996035
  C      2.79569683      6.99588512      0.72746227
  N      3.18864217      7.93785174     -0.12632832
  C      2.29083036      8.95632815     -0.09801558
  C      1.32887378      8.60420234      0.79854184
  C      0.89719551      6.66414199      2.29839765
  C      0.91479620      5.16147826      2.06816567
  C      4.35933676      7.91426101     -0.95573483
  H      3.32098399      6.06934317      0.90815940
  H      2.40284884      9.79427070     -0.76791031
  H      0.45815805      9.13194271      1.12698875
  H      1.28489877      6.92650881      3.29538530
  H     -0.12826101      7.03962792      2.25053965
  H      0.34734240      4.67565733      2.85637463
  H      1.92400800      4.76287294      2.08201963
  H      0.46173756      4.91573467      1.10848776
  H      4.20839723      8.63853572     -1.76570861
  H      4.51411072      6.91294544     -1.35214761
  H      5.23704117      8.20315986     -0.37647653
  N      4.02497873      1.71734201      4.68058171
  C      4.79836057      2.64822985      4.12739705
  N      5.67185413      3.07603280      5.03058032
  C      5.44868072      2.40113659      6.19327324
  C      4.41386699      1.54409421      5.97253341
  C      2.93680317      1.00461588      4.05292967
  C      3.30452062      0.54853328      2.64873399
  C      6.67154804      4.08075871      4.82049155
  H      4.71511858      3.03510411      3.12269037
  H      6.02019224      2.60176202      7.07521472
  H      3.93827015      0.79170254      6.58341288
  H      2.70478968      0.15211508      4.70677317
  H      2.06444679      1.66470955      4.01003726
  H      2.48698723     -0.03533920      2.23552532
  H      4.19395073     -0.07655092      2.67697617
  H      3.48829243      1.39732581      1.99442184
  H      7.66694058      3.64435199      4.91438659
  H      6.56690036      4.87046196      5.57950068
  H      6.54745685      4.49786750      3.82503355
  N      4.19248206      6.92507947      4.60848876
  C      3.92449697      7.13899540      5.88856516
  N      3.31551288      6.07845081      6.39634439
  C      3.17579722      5.15863283      5.40266199
  C      3.71735291      5.69090012      4.27693147
  C      4.74331262      7.88875380      3.69164089
  C      5.89689762      7.30776709      2.88625048
  C      2.96550809      5.91670007      7.77495076
  H      4.16849088      8.02594803      6.43457020
  H      2.69649129      4.21605351      5.57075655
  H      3.82201006      5.28314064      3.29011256
  H      3.93639218      8.23063259      3.03530998
  H      5.08227142      8.74267398      4.28128193
  H      6.27934846      8.06143639      2.20256985
  H      5.57710603      6.44425727      2.30877236
  H      6.69733595      7.00770706      3.55817108
  H      3.88677332      5.93592854      8.36313824
  H      2.45947358      4.96373678      7.91274205
  H      2.31208652      6.73212696      8.08624277
 Cl      4.46173638      4.21816376      1.27954686
 Cl      2.68945729     -1.11652999      6.60897850
 Cl      3.26946448     10.42345483     -2.81686334
 Cl      6.27166985      6.23381060      7.27246916
 Cl      1.53492492      8.34335125      5.05388353

