62
Energy =    -96.28849321 au
  N      3.46963264      3.84868114      7.56999074
  C      2.91451438      3.25706004      8.61647600
  N      1.65601136      3.65666177      8.73084410
  C      1.38954050      4.51881253      7.71089004
  C      2.52588234      4.64104376      6.97883638
  C      4.85625094      3.74706988      7.19283510
  C      5.01647262      3.48511872      5.70105063
  C      0.69847665      3.19327222      9.69113140
  H      3.41249151      2.58519674      9.28455901
  H      0.42400447      4.97872114      7.61867960
  H      2.71776572      5.20489522      6.08566145
  H      5.35787862      4.67941376      7.49158993
  H      5.29286603      2.92495715      7.77356245
  H      6.07280214      3.41980259      5.45328867
  H      4.57030028      4.28467464      5.11325535
  H      4.53919196      2.54158455      5.45112448
  H      0.55882162      2.11896402      9.56215635
  H     -0.24260555      3.70976863      9.51554238
  H      1.05284144      3.39546333     10.70197317
  N      1.35083921      7.46825571      8.65963858
  C      2.65860192      7.35112868      8.46561808
  N      2.94470627      7.73593648      7.22694233
  C      1.78871724      8.11759694      6.61672728
  C      0.78569821      7.95153430      7.51951899
  C      0.65018842      7.13038817      9.87071304
  C      0.33976200      8.38512669     10.67890179
  C      4.23677126      7.69968779      6.60718519
  H      3.34725183      6.87323407      9.16690632
  H      1.77000102      8.43023118      5.59375801
  H     -0.27236691      8.08246256      7.42892945
  H     -0.27621533      6.62210665      9.58187034
  H      1.28897544      6.45603722     10.44166266
  H     -0.19141613      8.11335931     11.58637320
  H     -0.28527052      9.06206789     10.10305943
  H      1.26221100      8.89519898     10.95412709
  H      4.62730691      8.70956605      6.47134040
  H      4.13510751      7.22744475      5.62343562
  H      4.91600507      7.12527267      7.23270458
  N      0.92080558      2.54377018      4.64975643
  C      0.83694132      3.82384590      4.30430684
  N     -0.16188824      4.38802408      4.97267063
  C     -0.73096198      3.44801240      5.77192403
  C     -0.04898188      2.28764716      5.57026842
  C      1.87673545      1.56080402      4.20048141
  C      2.75932349      2.07308130      3.07748046
  C     -0.54343328      5.76814671      4.88079735
  H      1.50872957      4.37644689      3.67239493
  H     -1.52811344      3.69482114      6.44429284
  H     -0.12940370      1.33154754      6.04423385
  H      2.45653491      1.26505566      5.08744006
  H      1.31722977      0.67648488      3.87532084
  H      3.48290006      1.30537208      2.81529507
  H      3.30305433      2.96452949      3.37866074
  H      2.17060861      2.30571205      2.19009164
  H      0.34323714      6.35775643      4.65216549
  H     -0.96963782      6.07095265      5.83858587
  H     -1.28796956      5.90328232      4.09626358
 Cl      2.86856290      6.26428744      3.92990869
 Cl      2.22044619      0.87507047      7.33010546
 Cl     26.56525625     -0.13046939    -25.55382059
 Cl      4.18703624      5.34821734     10.27665845
 Cl     -1.79221468      5.80356457      8.00050357
