#B3LYP/6-31+G(d) OPT FREQ

62, Energy =    -96.27975211 au

0 1
  N      3.54193794      4.59772379     11.22488024
  C      4.55201723      5.30532323     10.72936724
  N      5.69865777      4.73612614     11.09494929
  C      5.41374545      3.64334452     11.85543865
  C      4.05747292      3.55608591     11.93509613
  C      2.14720223      4.90715746     11.03831094
  C      1.55009435      5.51133178     12.30410828
  C      7.02095868      5.16591315     10.74341364
  H      4.41605545      6.14194410     10.05382228
  H      6.19907546      3.00002978     12.20317514
  H      3.42848628      2.83527518     12.41435716
  H      2.08408396      5.61791340     10.21278121
  H      1.62048989      3.98387807     10.76796889
  H      0.50476508      5.74619636     12.12913431
  H      2.07178028      6.42770549     12.57476536
  H      1.61216034      4.81194109     13.13521758
  H      7.66230332      4.27857332     10.70202504
  H      7.41195343      5.85221952     11.49630560
  H      6.99785647      5.66747929      9.77913740
  N      4.98116437      1.73088810      9.28895641
  C      3.74865840      2.11129041      8.95757458
  N      3.82333095      3.18577904      8.18053463
  C      5.13801484      3.49635757      8.00373171
  C      5.86662413      2.57835952      8.69693223
  C      5.34105474      0.59791649     10.10281192
  C      5.46820630     -0.65963528      9.24949536
  C      2.69440937      3.89569837      7.65384643
  H      2.81015390      1.70387392      9.31397048
  H      5.44122964      4.34390203      7.42497528
  H      6.91945528      2.48450088      8.88324378
  H      6.29976447      0.83783847     10.57852269
  H      4.56950480      0.46294484     10.86261831
  H      5.74548300     -1.50004621      9.87876745
  H      6.23955467     -0.52529862      8.49508969
  H      4.52475522     -0.88615116      8.75596595
  H      1.80372125      3.52792169      8.15969410
  H      2.60895472      3.72744700      6.57990951
  H      2.81989941      4.96874909      7.83640211
  N      0.15142545      6.81532712      7.28063126
  C     -0.26856790      5.71138875      6.66162713
  N     -0.55778843      4.78597518      7.57750724
  C     -0.42171314      5.35475638      8.81228510
  C      0.02441204      6.62072756      8.62661974
  C      0.55331585      8.04658715      6.65340296
  C     -0.58888460      9.05587619      6.67805569
  C     -1.08442934      3.47714259      7.32736570
  H     -0.19316881      5.53377706      5.60964221
  H     -0.62129015      4.79791844      9.70341911
  H      0.28702409      7.38196289      9.33052076
  H      1.43501952      8.41881750      7.18198115
  H      0.82818659      7.82029259      5.62139551
  H     -0.33534034      9.92739777      6.08054731
  H     -0.79987643      9.37358400      7.69632234
  H     -1.47926337      8.58253609      6.26931105
  H     -2.17375313      3.52480346      7.27077743
  H     -0.77816657      2.81225551      8.13557123
  H     -0.70422196      3.10407980      6.37838025
 Cl     -2.62258042      6.30899695      5.92562282
 Cl      3.37460717      7.07195032      8.41465602
 Cl      8.17693371      2.08820107     10.99307792
 Cl     19.47877069     12.74680125    -26.27280862
 Cl      0.76099590      2.02474606      9.96167031

