#B3LYP/6-31+G(d) OPT FREQ

62, Energy =    -96.28700272 au

0 1
  N      3.46577072      3.99412891      7.08143309
  C      3.01735773      3.38779600      8.17465877
  N      1.76000970      3.74026619      8.38645389
  C      1.38134903      4.58620751      7.39167326
  C      2.45019560      4.74809737      6.56907741
  C      4.84406950      3.99322676      6.65775813
  C      5.32235565      2.61380958      6.20967769
  C      0.88722384      3.22323687      9.39781778
  H      3.59058178      2.73635742      8.80075246
  H      0.40481682      5.02732251      7.39573084
  H      2.54071549      5.31386054      5.66132772
  H      4.94170341      4.71925435      5.84813071
  H      5.42782778      4.34020891      7.51773372
  H      6.39620397      2.52431996      6.35101736
  H      5.09340474      2.44487944      5.16167370
  H      4.82627051      1.84059116      6.78964133
  H      0.69339597      2.17017357      9.18227085
  H     -0.04614294      3.78270822      9.36973335
  H      1.35205546      3.31343445     10.37911882
  N      1.53298767      7.39255443      8.62013593
  C      2.76553139      7.41745753      8.12837872
  N      2.72550501      7.91206435      6.89585029
  C      1.43153882      8.21607269      6.59696683
  C      0.68157914      7.89177546      7.68490068
  C      1.16447158      6.88990241      9.91873070
  C      1.03908236      8.02747246     10.92606917
  C      3.83202755      8.03913960      5.99280660
  H      3.62073240      6.97870056      8.63597351
  H      1.15322360      8.59197004      5.63486252
  H     -0.37706385      7.91006428      7.84623734
  H      0.20745878      6.37212710      9.80659982
  H      1.94431163      6.19227708     10.23076560
  H      0.74806201      7.62502738     11.89180494
  H      0.28255149      8.74097839     10.60564213
  H      1.99103002      8.54296979     11.03722120
  H      4.08950566      9.08940054      5.84549701
  H      3.53738161      7.60853725      5.02967557
  H      4.68844030      7.50621017      6.39835183
  N      0.28867547      2.78178687      4.34841605
  C      0.09122636      4.07623668      4.10574989
  N     -0.73138474      4.56730422      5.02215516
  C     -1.06690667      3.56462308      5.87881991
  C     -0.42099913      2.44194229      5.45850325
  C      1.15948943      1.91881151      3.58966739
  C      2.61416996      2.22077203      3.92001108
  C     -1.14892487      5.93612376      5.11289399
  H      0.58348893      4.66863302      3.35616347
  H     -1.69141580      3.74527031      6.73140406
  H     -0.34725171      1.46813789      5.89762953
  H      0.93260994      0.88831999      3.86679159
  H      0.95541199      2.06831288      2.52402713
  H      3.26868240      1.60464163      3.30930476
  H      2.77226776      1.98136320      4.96956372
  H      2.83597219      3.26999654      3.74323223
  H     -0.32670941      6.56695944      4.77657669
  H     -1.40058454      6.15538400      6.15225767
  H     -2.02397075      6.11159316      4.48501354
 Cl      1.96815955      6.60607913      3.66142770
 Cl      1.96984675      0.97001765      7.01263329
 Cl     30.14005862     -0.89863574    -30.75980146
 Cl      4.51288031      5.41018643      9.73071809
 Cl     -1.70246961      5.73377389      8.43407209

