#B3LYP/6-31+G(d) OPT FREQ

62, Energy =    -96.26947211 au

0 1
  N      5.74397122      7.16103808      2.27308272
  C      6.84316417      7.87138915      2.03276215
  N      7.85560964      7.31502509      2.68889210
  C      7.39479465      6.22967043      3.37136799
  C      6.06326744      6.13314614      3.10923113
  C      4.42396009      7.40249037      1.73697179
  C      4.48263479      7.84893779      0.28342211
  C      9.22144119      7.75432039      2.67982687
  H      6.91016765      8.77576882      1.41995289
  H      8.06786076      5.60850292      3.92816982
  H      5.32710974      5.41050575      3.40652908
  H      3.86598841      6.46601005      1.83694342
  H      3.93434065      8.17200241      2.34335579
  H      3.47274502      8.01541371     -0.08174298
  H      4.94891889      7.07901058     -0.32693284
  H      5.04944229      8.77199521      0.17767771
  H      9.41646794      8.31222028      1.76653108
  H      9.86574204      6.87384714      2.74624813
  H      9.41703949      8.39917795      3.53898283
  N      2.00940145      4.49423580      6.29324760
  C      2.36703424      4.53809104      7.57772256
  N      2.97603207      3.39969095      7.89800316
  C      2.96180769      2.58541830      6.79961679
  C      2.36277886      3.27378714      5.79444409
  C      1.30877117      5.53835216      5.59188811
  C      2.29086779      6.47406303      4.89595937
  C      3.47902291      3.03467742      9.19138572
  H      2.28241797      5.39411542      8.21362985
  H      3.39174835      1.60534340      6.83130686
  H      2.19416572      3.02182482      4.76638627
  H      0.65999637      5.06723036      4.84874112
  H      0.68570500      6.05867380      6.32536558
  H      1.75561918      7.28343031      4.40828975
  H      2.84146619      5.91325400      4.14273417
  H      2.99486502      6.89704245      5.61006390
  H      3.80907971      3.92741667      9.72113182
  H      4.31799778      2.34220536      9.06635245
  H      2.68857138      2.55527967      9.77268695
  N      7.53706088      2.49535070      5.35629874
  C      7.82147439      2.84559332      4.10499237
  N      6.70851950      2.77449269      3.38149851
  C      5.69171608      2.36091871      4.18977340
  C      6.21351408      2.19087776      5.43449208
  C      8.45162927      2.49203640      6.47247104
  C      8.97972485      3.89854148      6.73135342
  C      6.58263675      3.06923995      1.98302444
  H      8.77985784      3.21255957      3.75312603
  H      4.68687632      2.28606093      3.82768696
  H      5.79078184      1.85025377      6.36473679
  H      7.89937247      2.10296113      7.33406713
  H      9.28521281      1.82113836      6.24506636
  H      9.64104384      3.88838672      7.59338876
  H      8.15455252      4.57813754      6.93369715
  H      9.53532823      4.26015455      5.86783983
  H      7.37059454      3.75748021      1.68661626
  H      5.59833437      3.51425966      1.81341612
  H      6.66249166      2.15309829      1.39438350
 Cl     10.37900177      4.61284805      3.38829902
 Cl      3.42732478      4.12170557      2.50861133
 Cl      6.91873893     10.52867539      0.33944264
 Cl      6.03282661      0.96840761      8.44967484
 Cl     -0.00572283      4.42968831      8.64634027

