62
Energy =    -96.26958297 au
  N      2.02525603     11.70812378     -0.81738763
  C      2.73575830     12.69601786     -0.25980449
  N      3.09527511     12.32511217      0.96934117
  C      2.67397468     11.04531842      1.17832839
  C      2.01174650     10.65445749      0.06396949
  C      1.56028051     11.65829336     -2.18007393
  C      2.55816918     10.90446326     -3.05340078
  C      3.93410823     13.07268853      1.86208642
  H      2.83868873     13.68022225     -0.66511010
  H      2.91357695     10.53342691      2.09617930
  H      1.52640221      9.72976020     -0.16797393
  H      0.57853981     11.17167355     -2.19459044
  H      1.45396442     12.68449548     -2.53910709
  H      2.25725107     10.94229869     -4.09570684
  H      2.63275582      9.86586865     -2.74045153
  H      3.53696713     11.36820158     -2.94360184
  H      4.84769490     13.34932425      1.33326830
  H      4.17034746     12.43343231      2.71438992
  H      3.42574760     13.97592169      2.20153968
  N      5.81223367      8.41287086      6.12274356
  C      6.04670992      7.11946662      5.90023499
  N      7.05824774      7.00301835      5.04363260
  C      7.53332597      8.25475180      4.77130663
  C      6.75410714      9.13576741      5.44765217
  C      4.82233995      8.96335951      7.01043187
  C      5.44620174      9.28790013      8.36277974
  C      7.64453779      5.78739582      4.56249051
  H      5.43041498      6.31394692      6.23898652
  H      8.34580882      8.40151183      4.08988829
  H      6.76650850     10.20534482      5.47568439
  H      4.40272367      9.85218590      6.53129380
  H      4.03191531      8.21931975      7.13210911
  H      4.67564821      9.56098238      9.07882433
  H      6.15325589     10.10919475      8.27237934
  H      5.97901868      8.40830890      8.71941972
  H      8.52098010      5.53965977      5.16471275
  H      7.93422802      5.93636049      3.51870706
  H      6.92536831      4.97467308      4.64828925
  N      4.85873191      7.94461424      1.37268457
  C      5.72729814      8.82387013      1.86493470
  N      5.90970595      9.79346191      0.97895043
  C      5.18815791      9.49997201     -0.13981607
  C      4.52612866      8.34228852      0.10779956
  C      4.44105259      6.75258780      2.05914694
  C      3.34288032      7.06653750      3.07102389
  C      6.77837592     10.92157914      1.14364649
  H      6.11828475      8.81890801      2.86096921
  H      5.18505228     10.15754486     -0.98616473
  H      3.86850207      7.76849856     -0.51204376
  H      4.09423508      6.03013029      1.31620204
  H      5.32628959      6.34648767      2.55512857
  H      3.16966603      6.21311539      3.71939663
  H      2.41428154      7.31635217      2.56275040
  H      3.63339525      7.92133878      3.67647766
  H      6.63369044     11.33807651      2.13929802
  H      6.53457585     11.66008957      0.38161271
  H      7.81735867     10.60562908      1.03431537
 Cl    -17.78064362     -3.09432051    -24.95086843
 Cl      4.20311109     10.40407366      3.97113366
 Cl      7.81196283      7.27772745      1.54473820
 Cl      7.21228462      6.32174136      8.07537028
 Cl      5.02137872     12.66508765     -1.43989463
