#B3LYP/6-31+G(d) OPT FREQ

62, Energy =    -96.26865121 au

0 1
  N      9.24094526      7.22510764      3.49846257
  C      9.00939995      7.56891570      2.23516155
  N      8.32731824      6.59224302      1.64932493
  C      8.11249601      5.60172117      2.55757167
  C      8.68784166      5.99980259      3.72310036
  C      9.97233421      7.96869743      4.49673246
  C     10.04493425      9.45071738      4.17151868
  C      7.86983076      6.59104803      0.29100692
  H      9.30303946      8.49157625      1.73026328
  H      7.53612004      4.73482021      2.31312446
  H      8.70961648      5.56065809      4.70189212
  H      9.47573275      7.78129092      5.45561340
  H     10.98482542      7.55216306      4.56021394
  H     10.57815557      9.96894925      4.96444964
  H      9.04915462      9.87402654      4.08182501
  H     10.56056367      9.62762435      3.23105710
  H      6.81118351      6.31906983      0.28659098
  H      8.42264128      5.85312879     -0.29293891
  H      8.02277951      7.58045995     -0.13366073
  N      5.75866224      3.39092437      4.77809102
  C      5.46429931      2.95033278      3.56054384
  N      5.61292240      1.62882056      3.53251208
  C      6.00897506      1.20969451      4.76468287
  C      6.09806853      2.31902512      5.54896933
  C      5.65369204      4.76387022      5.20594923
  C      4.36299107      4.98987944      5.98527469
  C      5.41059004      0.75833908      2.40874246
  H      5.18158573      3.60078020      2.74020721
  H      6.15653233      0.15713242      4.95199400
  H      6.38808138      2.43172234      6.57284053
  H      6.51764999      5.01557612      5.82932642
  H      5.65600932      5.38387406      4.30862361
  H      4.31646596      6.02843655      6.29800882
  H      4.32691243      4.35698810      6.86977659
  H      3.49918750      4.77564052      5.35945107
  H      4.44251530      0.95503144      1.95103346
  H      5.45878414     -0.27519423      2.77532617
  H      6.19110030      0.91633328      1.66402635
  N      5.83380786      9.63412475      3.32797828
  C      6.36840280     10.29830053      4.35180380
  N      6.75366679      9.42217210      5.27874400
  C      6.39636785      8.17219792      4.86152899
  C      5.82540093      8.29939422      3.63884821
  C      5.28498224     10.22435635      2.13473744
  C      6.01732444      9.74240067      0.88874298
  C      7.26031864      9.73393930      6.58210718
  H      6.58469899     11.34546141      4.35814444
  H      6.62376402      7.31579471      5.46409475
  H      5.42192640      7.55682472      2.97818274
  H      4.22485020      9.95683218      2.07690470
  H      5.35917598     11.30794387      2.24182109
  H      5.60664109     10.23468044      0.01094749
  H      5.88754809      8.67029711      0.77351976
  H      7.08103573      9.96720653      0.94408657
  H      7.55356000      8.80406740      7.06778096
  H      6.47150826     10.22925178      7.15281474
  H      8.11760312     10.40338688      6.50855503
 Cl      5.00929538      5.44424122      1.58511801
 Cl      5.82691346     -1.99578164      4.17763536
 Cl      8.26884296      6.22146273      6.96285803
 Cl      9.69673261     10.15271976      0.58407457
 Cl      4.37232211     11.38448069      5.57832708

