62
Energy =    -96.25959209 au
  N      0.68498697      5.16125860      7.31561309
  C      1.40878950      6.28009875      7.27269123
  N      1.29063234      6.91479654      8.44249425
  C      0.38042127      6.23075644      9.20355721
  C      0.00738141      5.13215312      8.50223440
  C      0.53965987      4.17952565      6.26934699
  C      1.89290988      3.70477609      5.75539562
  C      1.83830273      8.21299533      8.70035364
  H      2.12323482      6.53127918      6.51863623
  H      0.08160881      6.57355652     10.17237084
  H     -0.64854539      4.31285308      8.73801805
  H     -0.02929258      3.34776634      6.69622003
  H     -0.03504372      4.62930410      5.45340866
  H      1.74791649      2.88508699      5.05781029
  H      2.51541031      3.35543989      6.57557305
  H      2.41631315      4.50490483      5.23778268
  H      1.49220769      8.88211096      7.90689771
  H      2.92862008      8.17320548      8.69212289
  H      1.49267079      8.57063681      9.66767121
  N      2.56687754      0.39613066      8.10096689
  C      1.95680193      1.39549681      8.73277712
  N      2.88554523      2.17210742      9.28343723
  C      4.11419593      1.65382000      9.00098486
  C      3.91253584      0.53514631      8.25441351
  C      1.94077201     -0.67206053      7.35834333
  C      0.97600572     -0.12667872      6.31437324
  C      2.66917039      3.34837901     10.07565860
  H      0.88588179      1.57925617      8.75919175
  H      4.99974901      2.17091851      9.31937977
  H      4.58237808     -0.18039422      7.80465164
  H      2.74989627     -1.24564363      6.89304762
  H      1.40099242     -1.31700556      8.05880007
  H      0.51663038     -0.95327370      5.77957662
  H      1.51059292      0.49271766      5.59903634
  H      0.19286751      0.46524669      6.78285518
  H      1.76421923      3.85597917      9.74820598
  H      3.54361492      3.99522970      9.96818607
  H      2.56293949      3.07823773     11.12838546
  N      8.45752706      1.92210597      7.42021656
  C      8.35174839      3.10522802      8.02026282
  N      9.51960904      3.73394396      7.93239717
  C     10.39655142      2.94539720      7.25644810
  C      9.72748802      1.80644643      6.93172071
  C      7.40405358      0.94732160      7.25594570
  C      6.61573429      1.18190144      5.97461382
  C      9.84325954      5.03194898      8.45373006
  H      7.46254108      3.49301145      8.51316805
  H     11.41546707      3.27594847      7.10653035
  H     10.05188315      0.93342935      6.40446278
  H      7.85046020     -0.04819544      7.23061617
  H      6.73580899      1.01108493      8.11409942
  H      5.94065756      0.33917929      5.83726380
  H      7.28365685      1.23834541      5.11749371
  H      6.03947911      2.10060543      6.04151442
  H     10.92347921      5.17582834      8.34294357
  H      9.55030807      5.09689118      9.50030669
  H      9.31096272      5.80316727      7.89674820
 Cl      5.08725402     -1.88692333      6.44322981
 Cl      0.07820561      7.94238050      5.90340132
 Cl     -1.17649657      2.02369889      8.47868569
 Cl      5.85566127      4.41025643      9.58717864
 Cl     13.06637545      4.69896911      7.57399377
