#B3LYP/6-31+G(d) OPT FREQ

62, Energy =    -96.07856940 au

0 1
  N      1.84166240      7.04615153     -4.84652585
  C      2.38946634      6.65112550     -5.99587669
  N      3.32900464      7.52761841     -6.35480294
  C      3.42173488      8.46934255     -5.36721588
  C      2.49798048      8.16936029     -4.41888018
  C      0.86176723      6.31687304     -4.07862487
  C      1.55681692      5.48152463     -3.00915281
  C      4.21378708      7.35172084     -7.47032493
  H      2.05198080      5.83443502     -6.59926133
  H      4.13837050      9.26339214     -5.40670138
  H      2.17675003      8.70469547     -3.50634261
  H      0.17656934      7.03607574     -3.62327891
  H      0.31005731      5.66928997     -4.76280196
  H      0.83745056      4.84748481     -2.50040295
  H      2.03814271      6.12852981     -2.28157491
  H      2.31606032      4.85778392     -3.47552452
  H      4.75232703      6.40950746     -7.33396950
  H      4.92090408      8.17619055     -7.51086003
  H      3.64943405      7.30457869     -8.40223033
  N      0.30598874      8.73170937     -1.51091703
  C      1.20839336      9.64286973     -2.13562621
  N      0.37383741     10.54880771     -2.84459503
  C     -0.92099816     10.11008869     -2.76300294
  C     -0.97602511      9.05303748     -1.92779397
  C      0.58624147      8.08849139     -0.25583559
  C      0.32776246      8.99317650      0.95278486
  C      0.87054435     11.55718505     -3.72125656
  H      1.94559755     10.11183548     -1.48172004
  H     -1.71051383     10.60107833     -3.29651311
  H     -1.82457799      8.48474586     -1.60263964
  H     -0.03924234      7.19250980     -0.18388266
  H      1.63560335      7.78053551     -0.26621955
  H      0.56975837      8.46617999      1.87249192
  H     -0.71796794      9.29278480      0.98281648
  H      0.94202750      9.88969145      0.89222564
  H      1.62145245     12.16152707     -3.20737785
  H      0.04946697     12.20002964     -4.03410052
  H      1.33820797     11.12224415     -4.61630044
  N      7.81599152      0.99472693     -3.85554305
  C      6.64885339      0.46553605     -4.32604530
  N      5.84905343      1.48751494     -4.72796033
  C      6.51765960      2.65646505     -4.51952454
  C      7.72933201      2.36120847     -3.99191597
  C      8.97563102      0.25432069     -3.44512630
  C      9.89053589     -0.06167816     -4.62968806
  C      4.53210289      1.36976250     -5.27975814
  H      6.40974248     -0.57256142     -4.37136057
  H      6.06328412      3.60011575     -4.75500839
  H      8.52871730      3.00632024     -3.69305395
  H      9.51765523      0.85010153     -2.70625969
  H      8.64654238     -0.67441892     -2.97104644
  H     10.76738252     -0.60242476     -4.28584593
  H     10.21307464      0.85698982     -5.11414974
  H      9.36693311     -0.67355749     -5.36026304
  H      4.55948819      0.84295187     -6.23622648
  H      4.13786158      2.37569369     -5.43448428
  H      3.87691677      0.82573803     -4.59694198
 Cl    -19.94375829    -24.17910339     69.22624165
 Cl      4.05804376      4.74421556     -5.39921697
 Cl     19.93191565     -3.25344362    -34.16054060
 Cl     -5.02468922      7.28438002     21.67973251
 Cl     14.35053732     63.27595888      4.16087628

