#B3LYP/6-31+G(d) OPT FREQ

62, Energy =    -96.27100565 au

0 1
  N      2.37625070      7.39883661      3.81426417
  C      1.41220093      6.48765994      3.79841343
  N      1.80408485      5.45288385      3.06251475
  C      3.04982048      5.71374876      2.58038827
  C      3.40742578      6.93560786      3.05416384
  C      2.26253965      8.70295875      4.41337367
  C      2.04635880      8.61016766      5.91968877
  C      1.03806051      4.27898916      2.75583735
  H      0.47607066      6.57148212      4.30818132
  H      3.56102356      4.99978514      1.96194373
  H      4.30973121      7.49534693      2.91982093
  H      3.18195014      9.24984293      4.19201313
  H      1.40982639      9.19389513      3.92762599
  H      2.20510419      9.58199150      6.38084528
  H      2.74458458      7.89404858      6.34780557
  H      1.03439552      8.28063867      6.14020176
  H      0.73374515      3.77556091      3.67444939
  H      1.66140934      3.61252478      2.15529107
  H      0.14845569      4.56082066      2.19068115
  N      6.75105580      3.05030411      2.46866313
  C      5.75821251      2.34132978      2.98874138
  N      5.10032399      3.08982202      3.86185709
  C      5.66043286      4.32910366      3.87727027
  C      6.70059267      4.30543173      3.00344362
  C      7.67173009      2.56675708      1.47445301
  C      7.08116023      2.73360948      0.07793003
  C      3.93517371      2.69304071      4.59413825
  H      5.56007180      1.31228257      2.77212496
  H      5.26651896      5.10361643      4.50767510
  H      7.40010981      5.06869308      2.73081540
  H      8.60864707      3.12105112      1.57486577
  H      7.86231637      1.51530781      1.70468600
  H      7.66182862      2.17428106     -0.65080029
  H      7.06686155      3.78319917     -0.20965126
  H      6.05551337      2.37203744      0.07294146
  H      3.15007723      2.43775428      3.88104761
  H      3.62253741      3.52602085      5.22316587
  H      4.16132298      1.82282118      5.21059055
  N      8.69222708      3.65794648      5.69392752
  C      8.61807491      4.91108436      6.13406690
  N      7.44836672      5.07670075      6.73963507
  C      6.75829409      3.90252758      6.68437557
  C      7.54480048      3.00728463      6.02758287
  C      9.80581734      3.08123340      4.98082522
  C     11.05017518      3.05632806      5.86015944
  C      6.95791911      6.28982371      7.32626910
  H      9.42493551      5.64619744      6.07757541
  H      5.76100156      3.82793919      7.06716888
  H      7.38593692      1.98821406      5.72334222
  H      9.50108454      2.07834573      4.66483369
  H     10.00374815      3.69354449      4.09689830
  H     11.87217489      2.59641608      5.31879503
  H     10.86443387      2.48195999      6.76533512
  H     11.33165809      4.07243352      6.13216854
  H      7.53788303      7.12992007      6.95217110
  H      7.04893487      6.24862567      8.41318707
  H      5.90024618      6.39691984      7.06418171
 Cl      7.86545303      0.41102589      4.04647854
 Cl     11.19679463      6.71114295      6.28435527
 Cl     -0.35943333      8.13916826      2.45228840
 Cl      3.64795531      2.65746871      1.15129650
 Cl      3.81064495      5.64870335      6.37535254

