#B3LYP/6-31+G(d) OPT FREQ

62, Energy =    -96.27654227 au

0 1
  N      3.47150940      7.09574860      3.79725292
  C      4.20182792      6.28930742      4.55823702
  N      4.64309391      6.96495629      5.60959306
  C      4.15662309      8.23237485      5.54074102
  C      3.41977777      8.31552463      4.40051412
  C      2.77622327      6.72865525      2.58873251
  C      1.28153511      6.59210484      2.86615682
  C      5.45234626      6.45066617      6.67381762
  H      4.47499663      5.27834635      4.30678414
  H      4.40353455      8.96281949      6.28392358
  H      2.88143223      9.13215765      3.96623500
  H      2.95993431      7.50197532      1.83330385
  H      3.19066431      5.77701826      2.25261641
  H      0.79309884      6.08969079      2.03642541
  H      0.82665669      7.57063310      2.99690455
  H      1.12746395      6.01633033      3.77624119
  H      6.10047996      7.25161560      7.03798138
  H      6.04645113      5.61847091      6.30328819
  H      4.80787549      6.10024766      7.48180192
  N      6.34737561      7.32883202      2.17287548
  C      6.04456822      8.61276425      2.32379242
  N      6.55384986      9.03842007      3.47574624
  C      7.20863244      8.00180982      4.07041742
  C      7.07888172      6.92479712      3.24832191
  C      5.98186853      6.51440399      1.04233331
  C      7.12661398      6.45074270      0.03643946
  C      6.43288440     10.35622475      4.02975383
  H      5.38475821      9.15500042      1.65081644
  H      7.65258567      8.12525509      5.04092416
  H      7.38191668      5.90330037      3.36067340
  H      5.75352972      5.51197116      1.41979139
  H      5.10174618      6.96654149      0.58165258
  H      6.83838640      5.81946722     -0.79899883
  H      8.01651666      6.02859714      0.49888102
  H      7.35745237      7.44563740     -0.34065752
  H      6.59523293     10.28247946      5.11139372
  H      5.44326529     10.75358144      3.81673010
  H      7.18505592     11.01989907      3.59980262
  N      2.62515408      1.30579911      7.18897758
  C      2.60034016      2.38428057      6.40858370
  N      2.77009451      2.00830354      5.14867151
  C      2.91881187      0.65284130      5.12376047
  C      2.82473991      0.21041641      6.40802236
  C      2.43931806      1.26621152      8.61975603
  C      1.10687042      1.89230662      9.01076273
  C      2.77758763      2.90395590      4.02861090
  H      2.43361196      3.41703189      6.69043452
  H      3.08406817      0.11681029      4.21212788
  H      2.85440226     -0.77280543      6.85262360
  H      2.47169418      0.20815757      8.91188695
  H      3.26225768      1.80418487      9.09901547
  H      0.98764527      1.84599020     10.08931402
  H      0.28998224      1.34166767      8.55091984
  H      1.05498122      2.93144748      8.69384025
  H      2.15522944      2.50700457      3.22746288
  H      3.79706233      3.04391384      3.65128176
  H      2.39085049      3.86537740      4.36768214
 Cl      7.19017181      9.39037610      7.08413333
 Cl      1.86897064      5.47147353      6.22368978
 Cl      5.84832104      3.82521094      3.04738931
 Cl      3.65941726      9.34729868      0.43962353
 Cl      2.50432425     -2.09877156      8.67832996

