#B3LYP/6-31+G(d) OPT FREQ

62, Energy =    -96.26797931 au

0 1
  N      4.04561710      3.24597544      1.91539632
  C      4.79461240      2.91890147      0.87058828
  N      4.01816339      2.45835697     -0.09765272
  C      2.73030832      2.49209287      0.34068948
  C      2.74446802      2.98943463      1.60546614
  C      4.52014243      3.81942230      3.14967356
  C      4.87667373      5.29284267      2.95992051
  C      4.49472851      2.03459750     -1.37817332
  H      5.86008276      2.99805280      0.81505683
  H      1.91399835      2.16129031     -0.26819390
  H      1.95793833      3.18550321      2.31247317
  H      3.72243252      3.71873372      3.88846669
  H      5.39601704      3.24952852      3.47130054
  H      5.53160384      5.62718313      3.75954950
  H      3.97598978      5.89973493      2.97342754
  H      5.37357821      5.44005694      2.00363751
  H      5.01245279      2.87528516     -1.84504810
  H      3.65620438      1.72293621     -1.99725820
  H      5.18650244      1.20132857     -1.24383404
  N      1.54029175      7.91715170      3.35313071
  C      1.54571614      6.77602450      2.66786920
  N      1.90578928      7.03046598      1.41320405
  C      2.14101740      8.37045630      1.30414347
  C      1.91211733      8.92721117      2.52497478
  C      1.22005037      8.07528838      4.75182285
  C      2.22611463      7.32865019      5.61875357
  C      2.02179355      6.07486972      0.35083754
  H      1.30839555      5.80090363      3.07668924
  H      2.46041373      8.81231365      0.38362308
  H      1.92346198      9.94662064      2.88530617
  H      1.22244321      9.15275685      4.95465857
  H      0.21782821      7.67519638      4.92711801
  H      2.00676946      7.50924766      6.66699823
  H      3.23623994      7.67372535      5.41107725
  H      2.16874550      6.25868360      5.43014010
  H      3.07667135      5.89627171      0.08776466
  H      1.50999767      6.44820108     -0.53592053
  H      1.57708220      5.13421053      0.66503782
  N      5.60395020      0.21215724      5.61724698
  C      4.73452547      0.32710886      4.61823322
  N      3.55972860      0.70054334      5.11288867
  C      3.68797088      0.82642461      6.46670918
  C      4.97633010      0.52080927      6.78261179
  C      6.99308582     -0.16008682      5.49568498
  C      7.74451057      0.85332016      4.64164377
  C      2.36132345      0.89192110      4.34795512
  H      4.94470467      0.17271525      3.56259127
  H      2.87013814      1.13091652      7.08589402
  H      5.50904232      0.44530321      7.71970032
  H      7.39477275     -0.22014961      6.51505821
  H      7.04865208     -1.14658301      5.02752004
  H      8.79268747      0.57435155      4.58490115
  H      7.67461141      1.84535435      5.08216581
  H      7.33446237      0.87837897      3.63368965
  H      2.58614047      0.71812438      3.29790833
  H      1.97585008      1.91019158      4.46851472
  H      1.59192027      0.19214946      4.67719282
 Cl      7.27098124     -0.42469151      8.83178835
 Cl      5.32316721      0.17469071      1.49329554
 Cl      1.18513538     11.45293798      4.35999806
 Cl      1.01089916      3.97573672      4.27094740
 Cl      5.06114884      5.31074407     -0.67948713

