62
Energy =    -96.25143603 au
  N      5.47962724     -2.09385285      2.06443401
  C      4.65735096     -1.07784692      2.29579932
  N      5.28691977      0.05916584      2.01527402
  C      6.55105935     -0.24816915      1.59315461
  C      6.66920671     -1.60327543      1.62190396
  C      5.17322876     -3.49904569      2.19011109
  C      4.18248895     -3.92348121      1.11242372
  C      4.70455018      1.36688926      2.13040984
  H      3.63525783     -1.11003154      2.64694365
  H      7.25690917      0.50501064      1.30899284
  H      7.47906111     -2.29247886      1.40200401
  H      6.12516867     -4.03743956      2.07160955
  H      4.75498632     -3.68165553      3.18280143
  H      3.96020557     -4.98080760      1.22159250
  H      4.61582156     -3.76471348      0.12808644
  H      3.25526307     -3.35812871      1.18963453
  H      3.65872218      1.24415464      2.42865588
  H      4.75316507      1.88436177      1.17197709
  H      5.23580061      1.95628928      2.87840859
  N      2.74608698      2.36957563      5.78984782
  C      3.02376080      3.44491366      6.53098759
  N      2.13773259      4.40130231      6.24727559
  C      1.27519065      3.91881610      5.30376867
  C      1.65629079      2.64535424      5.02164951
  C      3.43073381      1.10031950      5.82667404
  C      3.14576795      0.37137170      7.13551578
  C      2.13640117      5.70559121      6.84520568
  H      3.81603534      3.58196869      7.25517225
  H      0.47041845      4.50585297      4.91274089
  H      1.27945620      1.91932578      4.32419235
  H      3.06652622      0.51755672      4.97310541
  H      4.50478703      1.27614305      5.72723369
  H      3.65249742     -0.58899078      7.13325600
  H      2.07831734      0.19788749      7.24412795
  H      3.49853882      0.95376495      7.98360034
  H      1.21360581      5.87170134      7.40257011
  H      2.23020420      6.47516102      6.07808946
  H      2.99337021      5.74674000      7.52495439
  N      4.46676455      7.84526498      9.94162966
  C      3.48637010      6.99755416     10.24141826
  N      3.78139245      6.37161341     11.37616447
  C      4.95933111      6.87298846     11.84407186
  C      5.38904816      7.79708005     10.94923946
  C      4.49183488      8.73373904      8.81034527
  C      3.87681267     10.08090971      9.18153791
  C      2.92147103      5.41392897     12.00437313
  H      2.66335764      6.75695324      9.60683302
  H      5.40250146      6.53151702     12.75691193
  H      6.27272785      8.40221993     10.94072795
  H      5.53111027      8.84509756      8.48233515
  H      3.91924574      8.26264017      8.00695983
  H      3.71983371     10.68500602      8.29242438
  H      4.52377859     10.62260181      9.86912581
  H      2.92139279      9.90660027      9.67493062
  H      1.93343396      5.86840839     12.11217543
  H      3.31710641      5.14841520     12.98247683
  H      2.84759154      4.52215822     11.37806012
 Cl      1.76868840      0.02954602      3.06232016
 Cl      8.28500688     -4.29604931      1.47038077
 Cl      4.75807651      4.90429425      8.73578558
 Cl      1.57439095      8.45084838     11.19713514
 Cl     11.76199944     33.87495151    -22.90397255
