62
Energy =    -96.23934843 au
  N      6.11714824      8.95972405      7.37395879
  C      5.88540520      8.08437401      8.36402245
  N      4.65754450      8.30256448      8.85136135
  C      4.10106994      9.33761245      8.15382223
  C      5.00927487      9.73952918      7.22848324
  C      7.28751768      8.96796240      6.53452656
  C      7.19320429      7.86455793      5.48577769
  C      4.07081632      7.55148227      9.92215443
  H      6.52715256      7.29401517      8.72279436
  H      3.11437359      9.70179668      8.35006508
  H      4.93696238     10.49778150      6.47762616
  H      7.34715392      9.94367584      6.04736692
  H      8.16877825      8.82642462      7.16678594
  H      8.00933242      7.95241723      4.77476968
  H      6.24596615      7.95465598      4.95902992
  H      7.23739827      6.88903316      5.96150974
  H      3.09476469      7.16667720      9.62548727
  H      3.95067889      8.17566923     10.80959579
  H      4.74489302      6.71999604     10.15110433
  N      2.52558351      5.47001257      7.12150012
  C      2.71398315      4.37527049      7.85814053
  N      4.01441156      4.16826122      8.01436581
  C      4.68017821      5.13807050      7.32740409
  C      3.75059143      5.95372411      6.76149261
  C      1.24276233      5.94552058      6.66683738
  C      1.15356757      7.46327529      6.68545324
  C      4.64616454      3.12170462      8.76196570
  H      1.93447374      3.76677005      8.26854253
  H      5.74846916      5.18865044      7.35189900
  H      3.86681370      6.81615709      6.12661249
  H      1.08665963      5.56631561      5.65230004
  H      0.48098416      5.50095920      7.31310925
  H      0.17425808      7.77160996      6.33046232
  H      1.90659936      7.90616190      6.03821368
  H      1.28883867      7.84232636      7.69625676
  H      5.47390368      3.56686349      9.32284275
  H      5.03183667      2.35793840      8.08562359
  H      3.93028544      2.66718057      9.44262706
  N      3.39788019      4.73299499      3.36042580
  C      2.66886384      3.63512314      3.13288087
  N      1.38662543      3.98699308      2.95535336
  C      1.30400879      5.34175834      3.14332435
  C      2.55480005      5.80655798      3.38738888
  C      4.81658249      4.77082044      3.61174416
  C      5.49729767      5.84390437      2.77264499
  C      0.29492642      3.05926157      2.91391730
  H      3.04602746      2.63756654      3.06339521
  H      0.37302807      5.86633290      3.07792477
  H      2.89969067      6.79939719      3.62240613
  H      4.97613201      4.97961214      4.67384324
  H      5.21804235      3.77972220      3.38772370
  H      6.56879015      5.81452554      2.94580008
  H      5.13088403      6.82617936      3.05722709
  H      5.30748567      5.68665730      1.71321304
  H     -0.63824036      3.59833109      2.76824416
  H      0.27034412      2.52274989      3.86784363
  H      0.43473148      2.34062740      2.10580632
 Cl    -25.59869875    -25.31796470     33.89815326
 Cl      3.87945582      8.55779884      4.64923092
 Cl      6.68970570      5.44809441      9.90440858
 Cl     24.10385195     23.24995299    -29.26419382
 Cl      2.14963732      2.77691276      5.65840041
