62
Energy =    -96.25923119 au
  N      1.16773977      1.02368659      1.77148181
  C      1.83673612     -0.12008614      1.68251321
  N      1.52170934     -0.88879150      2.71531230
  C      0.60855884     -0.22867874      3.47731054
  C      0.38615608      0.97110894      2.88778854
  C      1.20870044      2.08851379      0.81331326
  C      0.11951592      1.90699162     -0.24075796
  C      2.01350328     -2.21906524      2.90589102
  H      2.56466255     -0.35233023      0.93642937
  H      0.19858297     -0.65709186      4.36802208
  H     -0.23538547      1.78844338      3.18389615
  H      1.09372238      3.03770055      1.34079039
  H      2.19140612      2.06576526      0.34019157
  H      0.30611516      2.57025446     -1.08366811
  H     -0.86440201      2.11959745      0.17434212
  H      0.13012391      0.87765303     -0.58753750
  H      1.74776897     -2.80780200      2.02545028
  H      1.55967701     -2.65299013      3.79532025
  H      3.09753344     -2.19154513      3.01928318
  N      0.16988460      8.55084949      9.38983640
  C      0.99416713      7.56392902      9.04844593
  N      0.38190057      6.40290657      9.24590265
  C     -0.86961465      6.65707057      9.72671434
  C     -1.00309949      8.00900026      9.81525824
  C      0.42937483      9.96841277      9.29801352
  C      0.66986070     10.38078062      7.85152776
  C      0.95109829      5.11578599      8.96453465
  H      2.00012605      7.64920765      8.65346832
  H     -1.55169141      5.86755748      9.96546733
  H     -1.80689987      8.64860234     10.14690799
  H     -0.45401016     10.47653444      9.70959235
  H      1.30672048     10.20618847      9.90579155
  H      0.85803259     11.44951424      7.80652591
  H     -0.20837905     10.16084426      7.25021647
  H      1.52620561      9.85474980      7.43481407
  H      1.95422196      5.26479815      8.57596459
  H      0.35134472      4.58658899      8.22565580
  H      0.98737696      4.48518480      9.85314625
  N      2.91026676      2.05102089      6.88168010
  C      3.56044031      2.64530406      5.88242156
  N      4.19204603      3.71005628      6.36448317
  C      3.93978057      3.79714437      7.70109882
  C      3.13350773      2.75011962      8.02453040
  C      2.06415017      0.88933593      6.77984634
  C      2.87001369     -0.33070181      6.35259598
  C      4.97165220      4.66132897      5.63083531
  H      3.61818424      2.28513476      4.86258178
  H      4.31494578      4.61360999      8.28516287
  H      2.63323293      2.48231874      8.94221724
  H      1.59443698      0.75759045      7.76125642
  H      1.28841671      1.08969625      6.03491338
  H      2.22231922     -1.19971951      6.29945908
  H      3.66394582     -0.53448900      7.06739868
  H      3.31191778     -0.15680127      5.37263233
  H      4.74471079      5.65876223      6.02341146
  H      4.72467911      4.60187186      4.57295821
  H      6.03842897      4.46261313      5.75894465
 Cl      3.87154874      7.13332079      7.65053565
 Cl      0.67608969      1.78230443      9.80338309
 Cl      0.42578318     -1.57693523     -0.06393675
 Cl      3.97485153      1.03386454      3.12791196
 Cl     -2.53837770     10.76075670     10.59636013
