#B3LYP/6-31+G(d) OPT FREQ

62, Energy =    -96.27345495 au

0 1
  N      8.75573374      5.62779562      8.07606420
  C      9.12747873      4.77596274      7.12841020
  N     10.29267368      5.16603909      6.62483134
  C     10.66480373      6.31765682      7.25391807
  C      9.69925156      6.60456837      8.16841194
  C      7.54340755      5.55735292      8.85105014
  C      7.57982301      4.37966009      9.81842974
  C     11.08548998      4.47767510      5.64763497
  H      8.56786998      3.92071332      6.80919019
  H     11.54995733      6.84099074      6.95030776
  H      9.58285241      7.39055021      8.89489829
  H      7.46995684      6.49468420      9.41251189
  H      6.70749560      5.46158440      8.15360740
  H      6.65654068      4.35427260     10.38987783
  H      8.40811496      4.49782386     10.51302043
  H      7.68972053      3.43354324      9.29027709
  H     11.74436414      3.75817493      6.13910546
  H     11.69746447      5.22238572      5.12390060
  H     10.44138238      3.95248683      4.94665318
  N      8.30226985     10.37163317      8.33553909
  C      7.80900199      9.33793168      7.66742879
  N      6.50462539      9.25964344      7.87564628
  C      6.14779733     10.27768079      8.70047172
  C      7.27866774     10.97250858      8.98999310
  C      9.69218812     10.73916480      8.42776802
  C     10.32632576     10.87925775      7.05025080
  C      5.60917863      8.29368987      7.31136503
  H      8.36892734      8.66446304      7.05046790
  H      5.13604827     10.43701833      9.01068332
  H      7.42041028     11.83648520      9.60549096
  H      9.73937831     11.68968890      8.96403508
  H     10.20182834      9.97671033      9.02659496
  H     11.29342664     11.36668272      7.13632469
  H      9.68080014     11.48342302      6.41763731
  H     10.46964050      9.91100701      6.58050228
  H      4.87740638      8.80135148      6.68250532
  H      5.08941863      7.76274955      8.10977781
  H      6.16910777      7.57782618      6.70802483
  N      7.31426079      8.70102486      3.70157254
  C      7.69008221      7.55540120      3.14671587
  N      8.98778708      7.37393745      3.35960557
  C      9.45196173      8.41850355      4.09738358
  C      8.40103845      9.25675658      4.30811939
  C      5.99791942      9.29476793      3.68853632
  C      4.90281664      8.23755962      3.72614361
  C      9.75946341      6.24024079      2.94353895
  H      7.05458232      6.87150239      2.62328266
  H     10.48159342      8.44680564      4.40390094
  H      8.29587091     10.18297223      4.84453199
  H      5.95541230      9.96947272      4.55201626
  H      5.90268559      9.91366782      2.78861478
  H      3.96759318      8.68413250      4.05119738
  H      5.17650115      7.44588249      4.41903666
  H      4.74346921      7.79480438      2.74423471
  H      9.77455971      6.16685558      1.85512748
  H      9.31105412      5.33837153      3.35910097
  H     10.77684927      6.36773472      3.32265846
 Cl    -18.68326353      6.12060200     -8.39261439
 Cl      7.12857232      5.79636843      5.36727771
 Cl      8.28021917      8.35346363     10.55605372
 Cl      6.82733016     11.67438402      5.87166147
 Cl     12.58034547      7.17298635      4.53535817

