#B3LYP/6-31+G(d) OPT FREQ

62, Energy =    -96.27539803 au

0 1
  N      7.85549772      2.67551357      2.64310270
  C      6.95993717      2.01246030      3.37988211
  N      6.59450395      2.78449948      4.40116392
  C      7.27104497      3.96268783      4.32182338
  C      8.05831919      3.89868553      3.21587371
  C      8.43959800      2.18831793      1.41778001
  C      7.38817642      2.09155920      0.31726422
  C      5.66039760      2.45914439      5.44242045
  H      6.57572883      1.02806797      3.11267473
  H      7.08486223      4.74898928      5.03543012
  H      8.73608614      4.61776063      2.80472573
  H      9.24976467      2.86912776      1.13764938
  H      8.85240574      1.19218763      1.60154182
  H      7.86034890      1.81373674     -0.61976096
  H      6.87188966      3.03934509      0.18885693
  H      6.66891652      1.32179447      0.58543566
  H      5.45241697      3.37813034      5.99699216
  H      6.08811427      1.71811067      6.11948965
  H      4.74164569      2.05211280      5.02043316
  N      0.84892088      0.44922973      3.72011262
  C      1.02452360      0.55066555      2.40450799
  N      2.31897184      0.45214300      2.13398130
  C      2.99134857      0.27807299      3.30459098
  C      2.06611599      0.27124059      4.30363609
  C     -0.41310511      0.44408706      4.41622468
  C     -1.10696301     -0.90537812      4.25749269
  C      2.91173483      0.57226184      0.83415875
  H      0.26744607      0.77012532      1.67804296
  H      4.05396686      0.11890586      3.30360836
  H      2.15218192      0.21142316      5.37340392
  H     -0.19635897      0.63449460      5.47457369
  H     -1.03769629      1.24390795      4.01284456
  H     -2.05574500     -0.89169566      4.78599498
  H     -0.48933088     -1.69435722      4.67994448
  H     -1.29284692     -1.12711302      3.20743234
  H      3.99106217      0.46286186      0.93070126
  H      2.63971946      1.54532186      0.41982399
  H      2.52932794     -0.20528950      0.17257760
  N      2.49331612      4.43275450      3.66990889
  C      3.03522968      4.68359061      4.86172270
  N      2.29770095      4.09753250      5.79523309
  C      1.25217986      3.46750942      5.19589121
  C      1.37764531      3.67439973      3.85685411
  C      2.98878177      4.84897599      2.37985584
  C      4.42051825      4.37707470      2.15979196
  C      2.55551905      4.09733862      7.20547613
  H      3.93929534      5.23691644      5.07976808
  H      0.56922525      2.87836023      5.77489685
  H      0.79295278      3.35788043      3.01147582
  H      2.31994272      4.41296576      1.62928881
  H      2.94193354      5.94010049      2.31401952
  H      4.75156240      4.68788829      1.17285616
  H      4.47327856      3.29246078      2.21418780
  H      5.08607707      4.80835487      2.90446216
  H      3.58455986      4.40700620      7.38124729
  H      2.36899262      3.09013830      7.58720068
  H      1.88014448      4.79034716      7.71045354
 Cl      5.61957180      5.72248982      6.42596482
 Cl      1.03811098      1.05153453      7.35577797
 Cl      5.94790012     -0.59095730      1.97758588
 Cl      0.62420572      3.03815370      0.72155963
 Cl     25.99125979     28.71809866    -17.51445254

