62
Energy =    -96.12808398 au
  N      6.59450751     16.95468714     18.74339268
  C      7.17721275     16.41193087     19.89398796
  N      6.10938804     16.00293712     20.70368281
  C      4.94387483     16.43637019     20.12356477
  C      5.23502078     16.98279353     18.92297017
  C      7.29395950     17.25998161     17.53247166
  C      7.39536298     16.04677704     16.60279729
  C      6.25803332     15.52320300     22.04060510
  H      8.04028523     15.76844118     19.80402151
  H      3.99507851     16.30519125     20.60277730
  H      4.57995943     17.40113964     18.18611143
  H      6.76647654     18.07083267     17.02115775
  H      8.29697278     17.60796582     17.79515466
  H      7.92680494     16.31672976     15.69472496
  H      6.40280561     15.69147292     16.33581069
  H      7.93169033     15.23854644     17.09372733
  H      7.07723805     14.80365761     22.08139827
  H      5.33728560     15.03293724     22.35540120
  H      6.48090739     16.33599353     22.74280232
  N     -2.07081771     -4.05884080      5.02248417
  C     -1.81253988     -3.62088189      6.27515206
  N     -0.66751614     -4.21257485      6.69109362
  C     -0.08671635     -4.81839206      5.59980646
  C     -0.95337052     -4.72868917      4.57095101
  C     -3.18507477     -3.65721967      4.20110863
  C     -2.81045887     -2.51692029      3.25911593
  C     -0.02213156     -3.89400234      7.93138888
  H     -2.59563349     -3.34475485      6.95624406
  H      0.87928328     -5.27496745      5.65695015
  H     -0.88413353     -5.09839580      3.56968867
  H     -3.52409608     -4.53073583      3.63421543
  H     -3.98749985     -3.33518289      4.86795019
  H     -3.69141538     -2.16734397      2.72822994
  H     -2.06700150     -2.84205368      2.53551520
  H     -2.39475218     -1.69787190      3.84007112
  H      0.93380061     -4.40851877      7.98725638
  H     -0.64891605     -4.19679395      8.77145705
  H      0.13591742     -2.81334229      7.98047240
  N      4.36302340      3.76383902     -3.21005398
  C      3.96758465      4.65970152     -4.14299931
  N      4.17011976      5.89939263     -3.63525545
  C      4.92699571      5.76752884     -2.49257652
  C      5.04263623      4.45118871     -2.22614382
  C      4.34349920      2.33014427     -3.35631977
  C      5.69607765      1.79045372     -3.81129466
  C      3.97802610      7.10127711     -4.39365453
  H      3.17460496      4.44784137     -4.83588335
  H      5.29714642      6.61923241     -1.96115131
  H      5.52563328      3.94506739     -1.41705532
  H      4.05814745      1.89221590     -2.39401504
  H      3.57978843      2.08451951     -4.09683768
  H      5.62804139      0.72228303     -3.99608760
  H      6.45642747      1.97087213     -3.05565297
  H      5.99102399      2.29400971     -4.72768099
  H      4.56021655      7.03460380     -5.31680082
  H      4.30962207      7.95674748     -3.81052220
  H      2.92420730      7.22067978     -4.65006294
 Cl     -1.21875510     -1.43160705      6.12698771
 Cl     -1.23957071     33.74100266      5.55001499
 Cl     27.86413087     -1.40108845     26.50604673
 Cl      5.44882075      4.55862110     -5.85561363
 Cl    -10.31567948    -19.32815099     -1.29541963
