#B3LYP/6-31+G(d) OPT FREQ

62, Energy =    -96.23925866 au

0 1
  N      0.21366472      5.92096112      6.90850511
  C      1.16510111      6.67119554      6.34091316
  N      0.72013922      7.10399975      5.16117925
  C     -0.49147245      6.51705117      4.91734070
  C     -0.80802389      5.77927556      6.00935373
  C      0.35788221      5.25585457      8.17685111
  C      0.41952517      6.26203066      9.32168915
  C      1.49074047      7.90671815      4.25699284
  H      2.01491289      7.09667009      6.84142607
  H     -1.02501653      6.67118634      4.00194739
  H     -1.66855191      5.17627710      6.21410026
  H     -0.48932033      4.57814642      8.30740265
  H      1.27829075      4.66613654      8.13429948
  H      0.58685998      5.74219942     10.25963545
  H     -0.51381699      6.81793315      9.39087772
  H      1.22909438      6.96768616      9.16047631
  H      0.83215087      8.41485397      3.55506287
  H      2.19069768      7.26872033      3.71198272
  H      2.05215944      8.63755357      4.84185949
  N      6.69938458      9.67307958      5.53506584
  C      5.88191882     10.27657246      6.42420668
  N      6.26417138      9.91671121      7.67156611
  C      7.34930803      9.08742425      7.54712993
  C      7.61907356      8.94380464      6.22563969
  C      6.68383204      9.84251175      4.10765552
  C      7.34569333     11.15857137      3.70503596
  C      5.58810210     10.29593832      8.87516243
  H      5.00499248     10.83979734      6.19319326
  H      7.84462278      8.67160824      8.40060512
  H      8.34189270      8.34805576      5.69842157
  H      7.23892870      8.99714145      3.68254328
  H      5.64671665      9.82408990      3.76317240
  H      7.33477223     11.25539097      2.62365506
  H      8.37972160     11.17231554      4.03996791
  H      6.82194584     12.00813561      4.14103332
  H      5.92896820      9.67362499      9.69972009
  H      4.51508343     10.15307046      8.73017500
  H      5.77655664     11.34552030      9.11620712
  N      5.47907378      6.33542025      6.94787705
  C      4.95478736      6.80060062      5.81900888
  N      5.58635727      6.26041799      4.78931571
  C      6.53266675      5.40859869      5.26506329
  C      6.46656435      5.45248288      6.62141015
  C      4.98182507      6.61668195      8.27067489
  C      4.23953925      5.40013555      8.81547234
  C      5.36102468      6.51158789      3.39823490
  H      4.16795052      7.53223384      5.78878067
  H      7.19480022      4.87798135      4.61435165
  H      7.03837653      4.93204271      7.36092418
  H      5.82298811      6.88083760      8.91811618
  H      4.30608987      7.47109444      8.18294033
  H      3.67671698      5.66711903      9.70500361
  H      4.93175293      4.59889077      9.06352107
  H      3.55726139      5.04033882      8.04874331
  H      4.91234741      5.63486413      2.92938812
  H      6.33515267      6.71991560      2.94370961
  H      4.69946654      7.36635546      3.28286856
 Cl      2.98613127      9.22229668      7.07179642
 Cl      2.74876705      4.87824146      5.65595436
 Cl      8.53716531      7.11861815      3.69075141
 Cl     32.66456649    -15.26898355    -18.77409153
 Cl    -23.83902762    -31.96070393      7.90567094

