62
Energy =    -96.26226691 au
  N      6.44802304      8.84659235      7.15099436
  C      6.15231049      8.04438604      6.13740837
  N      6.23326856      6.78546688      6.54193892
  C      6.57561591      6.77546101      7.86001315
  C      6.71505690      8.07062017      8.24253931
  C      6.45016426     10.28331142      7.10119275
  C      5.08099034     10.82691558      7.49977511
  C      5.95121605      5.63455021      5.73778982
  H      5.87571701      8.36203061      5.15465761
  H      6.69798408      5.84949442      8.39268164
  H      6.98375923      8.50191093      9.18487918
  H      7.23407118     10.65018220      7.76927999
  H      6.70180016     10.57034976      6.07816663
  H      5.00543017     11.88394978      7.25905006
  H      4.91407268     10.69574391      8.56699434
  H      4.30680927     10.27965437      6.96530094
  H      4.90702629      5.67465882      5.42227431
  H      6.12327516      4.74019002      6.33348155
  H      6.59766838      5.63762374      4.85942362
  N      9.63941365      5.99577068      7.77110581
  C      9.36749310      5.79417376      9.05827618
  N      9.57999833      6.91923901      9.72969715
  C      9.99891817      7.86827696      8.85044304
  C     10.03618461      7.28902252      7.61642399
  C      9.52641538      4.94653055      6.78037810
  C      9.82836916      5.41986062      5.37234735
  C      9.38812572      7.13213839     11.13507302
  H      8.95390265      4.87890780      9.44398134
  H     10.29218329      8.84126501      9.19976567
  H     10.23770995      7.72514077      6.65916023
  H     10.21770215      4.14510283      7.06859581
  H      8.51435367      4.53766362      6.85969642
  H      9.58281451      4.62942617      4.66757059
  H     10.88374355      5.66365315      5.26240811
  H      9.24573649      6.30539618      5.12128164
  H     10.03118289      7.97221758     11.43994665
  H      9.64664491      6.23097258     11.68808447
  H      8.34652131      7.38492105     11.33886560
  N      1.98264790      4.81776126      6.85264921
  C      2.06180620      5.76813479      7.77604248
  N      3.14663796      5.56794044      8.51307552
  C      3.77042052      4.43958054      8.06800910
  C      3.03963424      3.96998652      7.02604842
  C      0.94250436      4.72494820      5.86614077
  C      1.31745618      5.52327794      4.62056980
  C      3.57716359      6.42286959      9.57826680
  H      1.39946276      6.60222393      7.86572073
  H      4.68322275      4.07382005      8.49902997
  H      3.18525589      3.10773554      6.40840598
  H      0.78458149      3.66925333      5.62718833
  H      0.03352041      5.11687338      6.32838007
  H      0.45513320      5.64482277      3.97015588
  H      2.10901366      5.02119695      4.06707942
  H      1.68351538      6.50401348      4.91816701
  H      3.74763592      7.42405974      9.17792386
  H      4.50027153      6.03193744      9.99985311
  H      2.80190413      6.46521363     10.34499480
 Cl      3.31759819      7.94138514      6.30033381
 Cl      7.09932474      3.57186253      8.72057735
 Cl      8.55032253      8.50097564      4.83162629
 Cl     11.32562346      9.71725098     11.33824090
 Cl      0.01942267      4.78581531      9.20450930
