62
Energy =    -96.26300365 au
  N      2.63129698      5.80004610      5.60962094
  C      3.71860202      5.88133950      6.37177740
  N      3.54523358      6.83756141      7.27874490
  C      2.30793337      7.37786167      7.08847046
  C      1.73125065      6.72837292      6.04085658
  C      2.38368225      4.87123444      4.53113891
  C      1.20520913      3.96684164      4.87084116
  C      4.47038568      7.18723179      8.31871677
  H      4.61100114      5.28355970      6.29358430
  H      1.94143583      8.17660272      7.69891335
  H      0.73777779      6.81666564      5.61340032
  H      2.14337547      5.44462524      3.63243179
  H      3.28491843      4.28221743      4.34240199
  H      1.08341007      3.23631473      4.07687110
  H      0.29138579      4.55247265      4.95924603
  H      1.38825249      3.43892481      5.80497589
  H      4.05376994      6.91491465      9.28934222
  H      4.67338598      8.26105600      8.33229615
  H      5.39398635      6.63182932      8.16388300
  N      8.13849149      4.64814895      4.29925685
  C      7.06100679      3.87655503      4.37545916
  N      7.35702234      2.78703318      5.06662670
  C      8.65457569      2.87616737      5.46913581
  C      9.14715534      4.04722201      4.98376894
  C      8.21898559      5.94952848      3.68253802
  C      7.03484826      6.80618075      4.11366451
  C      6.40071098      1.77593973      5.40969929
  H      6.10655443      4.01043453      3.88832067
  H      9.11821202      2.12320379      6.07309342
  H     10.10351228      4.52512371      5.08454507
  H      9.16824100      6.39134369      4.00110421
  H      8.23186403      5.83089154      2.59372435
  H      7.21983673      7.84914003      3.87173473
  H      6.89418907      6.69692702      5.18657883
  H      6.12329202      6.48693376      3.61442225
  H      5.96161950      2.01255128      6.38060458
  H      6.88202372      0.79989032      5.45114526
  H      5.61576509      1.79046224      4.64635608
  N      9.23835637      6.51370526      8.20966949
  C      8.98319683      7.37478833      7.23399101
  N      8.05778378      8.23383103      7.64594517
  C      7.70188300      7.90767866      8.91709898
  C      8.43990267      6.82154992      9.26887060
  C     10.14776068      5.40250330      8.09938521
  C     11.11551829      5.34409849      9.27372777
  C      7.48383121      9.32194165      6.90560947
  H      9.49698238      7.35714284      6.28567140
  H      6.95751566      8.48497723      9.43910696
  H      8.42698303      6.24254534     10.16769604
  H      9.55250379      4.48692716      8.03497785
  H     10.69558734      5.53852041      7.16215110
  H     11.82607591      4.53789936      9.11259449
  H     10.59644383      5.16487107     10.21315474
  H     11.66734862      6.27853224      9.35011239
  H      6.84601063      9.89238597      7.59028557
  H      6.87296228      8.94009572      6.08839857
  H      8.26957250      9.95671265      6.49761431
 Cl     11.35599132      6.59549032      5.10169246
 Cl     -1.33567571      6.50720607      5.03073099
 Cl      6.80575809      4.91136870      7.24581672
 Cl      4.60834154      2.76752199      2.79229965
 Cl      5.51313793     10.31216019      9.38268801
