62
Energy =    -96.23551702 au
  N      3.09279332      7.52600464      2.30970346
  C      4.43131664      7.38036616      2.35585550
  N      4.98663111      8.56272026      2.65026030
  C      3.99182096      9.47340770      2.82411747
  C      2.81220119      8.83516224      2.62036615
  C      2.13679128      6.45659043      2.19690987
  C      1.72953710      5.94582897      3.57764518
  C      6.38511920      8.80671311      2.84419954
  H      4.95859536      6.46455924      2.19774701
  H      4.22306877     10.47527783      3.13807130
  H      1.80656183      9.19727247      2.66351238
  H      1.26532394      6.82436142      1.64650532
  H      2.60005360      5.64871038      1.62481387
  H      1.14606270      5.03506703      3.48612113
  H      1.14071729      6.69201692      4.10482555
  H      2.62330483      5.74003782      4.16192897
  H      6.78570307      8.04544817      3.51326751
  H      6.49272851      9.79499277      3.29778534
  H      6.91980080      8.77302056      1.89361720
  N      6.58222982      4.18952339      7.48489137
  C      7.10368031      3.72302332      8.62189497
  N      6.15617987      3.72697812      9.56898494
  C      5.03264318      4.30146894      9.03071008
  C      5.29681458      4.57685468      7.73029131
  C      7.28520015      4.34527140      6.23830750
  C      7.38175894      3.02021972      5.48809590
  C      6.40513575      3.46506832     10.95618209
  H      8.06588835      3.26795472      8.72654812
  H      4.14491314      4.45459106      9.60849658
  H      4.70991510      5.05203856      6.96801592
  H      6.72617482      5.07372842      5.64405801
  H      8.28123694      4.73451156      6.46209248
  H      7.94387011      3.16106399      4.56961785
  H      6.38827554      2.66008644      5.23125759
  H      7.88496192      2.26698785      6.09098624
  H      5.48541501      3.58750368     11.52278458
  H      7.15553860      4.17738677     11.31217266
  H      6.78786969      2.45260275     11.09246303
  N      4.74896822      9.08411116      7.09344371
  C      5.92129661      9.04755604      6.47647254
  N      6.73044796      8.22576682      7.13305682
  C      6.05041716      7.70316170      8.18856583
  C      4.80187615      8.24115325      8.16284296
  C      3.61247398      9.85031539      6.64452528
  C      2.52328267      8.92291202      6.11999703
  C      8.08617921      7.90206521      6.79412362
  H      6.15102581      9.66916362      5.62188207
  H      6.51972249      7.00515434      8.85663459
  H      3.96656867      8.08510228      8.81288391
  H      3.24245311     10.45456230      7.47817516
  H      3.97616225     10.51284255      5.85247535
  H      1.77707798      9.49599044      5.57831484
  H      2.03625614      8.38744697      6.93272151
  H      2.97064696      8.19510365      5.44906056
  H      8.11909482      7.41383504      5.82039640
  H      8.47762933      7.22605501      7.55593032
  H      8.69169863      8.80717888      6.75727170
 Cl     -5.29282225      4.32966455    -22.99019360
 Cl      5.73936627     11.60296218      4.57112323
 Cl      4.92482793      6.46603987      5.02014398
 Cl     -1.96954386    -11.92406023     23.92235421
 Cl      8.45092822      5.72654748      9.47943511
