#B3LYP/6-31+G(d) OPT FREQ

62, Energy =    -96.25734977 au

0 1
  N      1.02359969      8.09902070      9.93945527
  C      2.21141301      8.40741557      9.43059915
  N      2.65743957      7.37220428      8.72657924
  C      1.73098475      6.37678016      8.78031397
  C      0.70113825      6.83332899      9.54144670
  C      0.21395005      8.99321566     10.72978210
  C     -0.96674123      9.51241322      9.91723584
  C      3.90232522      7.27398664      8.01606606
  H      2.69394311      9.36002944      9.63950418
  H      1.89672601      5.44669210      8.25957150
  H     -0.21380762      6.35667215      9.82612867
  H     -0.13630636      8.45916356     11.61720684
  H      0.86481348      9.82889706     11.02323047
  H     -1.57163865     10.16930685     10.53547868
  H     -1.58991016      8.69535467      9.55592825
  H     -0.60329433     10.08171000      9.06597039
  H      4.00077040      8.09968723      7.31284790
  H      3.90514100      6.31963288      7.47831488
  H      4.73879712      7.30363056      8.71415441
  N      6.82298339      1.75681924      3.79381089
  C      7.26900580      2.13602052      4.98783186
  N      6.43112144      3.04184382      5.48189446
  C      5.43124294      3.25180356      4.57838276
  C      5.67687798      2.43916643      3.51642291
  C      7.42511277      0.76962166      2.92953975
  C      7.78894107     -0.48898216      3.70573276
  C      6.53767458      3.68166059      6.76184033
  H      8.17075001      1.76849010      5.48603064
  H      4.61958113      3.91838904      4.78764114
  H      5.13631500      2.25816584      2.60365762
  H      6.70059138      0.55954940      2.13600444
  H      8.32718931      1.19859989      2.48172385
  H      8.20999527     -1.22487650      3.02601866
  H      6.90228872     -0.91303092      4.17114371
  H      8.52190327     -0.26575163      4.47874445
  H      7.15254305      3.06914705      7.41729460
  H      5.53401795      3.80703784      7.17401852
  H      6.99811957      4.66618051      6.65645315
  N      2.10085675      1.33236472      3.35575807
  C      1.96396022      1.25757808      2.03475567
  N      1.94619938      2.48348520      1.53068290
  C      2.02603349      3.36994362      2.56427760
  C      2.12604651      2.65052350      3.71017166
  C      2.22153792      0.19672097      4.22919678
  C      3.66556467     -0.29959521      4.26080472
  C      1.79629484      2.76257342      0.13552049
  H      1.97665094      0.35879250      1.45602711
  H      2.00539261      4.42928569      2.41179624
  H      2.21584692      2.97291751      4.72819200
  H      1.89234197      0.49461524      5.22740610
  H      1.55174309     -0.57924703      3.85009885
  H      3.71884906     -1.28341558      4.71984825
  H      4.28554676      0.38796248      4.83070564
  H      4.05493407     -0.35512902      3.24644458
  H      2.63784800      2.31818556     -0.39975228
  H      1.77591712      3.83827555     -0.02625106
  H      0.86336163      2.31011597     -0.20723148
 Cl      2.67584192     11.16545588     10.81461622
 Cl     -0.61773350      0.80240408      1.76888464
 Cl      3.15294342      4.22514354      6.85385784
 Cl      4.66548562      0.92337438      0.79165381
 Cl      9.87938587      1.00679659      6.36208571

