62
Energy =    -96.27286970 au
  N      6.81008526      3.73511223      9.06434462
  C      7.01745790      2.87541934      8.07123672
  N      8.10879289      3.24080964      7.40858542
  C      8.60896345      4.36715594      7.99334316
  C      7.79051236      4.67796696      9.03604152
  C      5.73411356      3.69622779     10.02651262
  C      5.59119352      2.30728262     10.63372926
  C      8.68393123      2.53180479      6.30218181
  H      6.41965590      2.00189390      7.82834646
  H      9.48045756      4.85664848      7.61115191
  H      7.81620680      5.45375440      9.78550732
  H      5.97124839      4.44634877     10.79316622
  H      4.80427796      3.98030122      9.52404196
  H      4.78778506      2.31468607     11.36477138
  H      6.51196697      2.02258575     11.13709959
  H      5.36265141      1.56675749      9.87091975
  H      9.54936846      1.95965325      6.63832815
  H      9.01798063      3.23469969      5.53025691
  H      7.94386748      1.84391902      5.90164320
  N      7.00281484      3.51410381      1.97576438
  C      8.03774653      2.73745804      2.27705718
  N      7.92707726      1.59721711      1.60192752
  C      6.79606628      1.65273009      0.84561291
  C      6.20923625      2.85735109      1.08243610
  C      6.78268472      4.83443411      2.51868348
  C      6.38966279      5.81971646      1.42801211
  C      8.80836446      0.46527313      1.65351481
  H      8.84239545      3.04888970      2.93439701
  H      6.51538699      0.81673948      0.23227550
  H      5.27816114      3.27198375      0.73735339
  H      5.97602040      4.78376859      3.25492387
  H      7.70882932      5.12901426      3.02133523
  H      6.34742755      6.82089366      1.84598166
  H      5.40870964      5.56924511      1.03172146
  H      7.11808540      5.80875001      0.62095946
  H      9.73100938      0.67387563      1.10970288
  H      8.29374133     -0.38091778      1.18826095
  H      9.05364561      0.22977667      2.68819446
  N      4.63859220      1.39031618      3.82955161
  C      4.02687810      1.45411510      2.65086407
  N      4.23992240      0.31667130      1.99777194
  C      5.00424337     -0.49666939      2.77696846
  C      5.25558648      0.17886869      3.93037327
  C      4.69852518      2.41174817      4.85001075
  C      3.53264947      3.38184518      4.76283188
  C      3.77316230      0.00721085      0.67729486
  H      3.51148530      2.31205651      2.23059087
  H      5.34801459     -1.44646536      2.42206106
  H      5.76085546     -0.10617734      4.83346656
  H      4.71921032      1.89123681      5.81617953
  H      5.64696734      2.94985103      4.74155051
  H      3.63377496      4.13169542      5.54220796
  H      2.59200703      2.85738000      4.90948255
  H      3.50060523      3.88502379      3.79909393
  H      3.54405155      0.93370753      0.15632548
  H      2.87712007     -0.61433769      0.72623754
  H      4.56114606     -0.54581330      0.15625994
 Cl      6.63620878     -1.56981835      0.00491544
 Cl      9.94557144      4.57294614      4.00026690
 Cl      5.44672553      0.20058418      7.25946802
 Cl      3.12380974      4.05267515      1.04062555
 Cl      7.05173913      6.18692535     11.83658802
