#B3LYP/6-31+G(d) OPT FREQ

62, Energy =    -96.28382145 au

0 1
  N      5.44048866      1.05069332      4.87341150
  C      6.31467429      2.00150408      4.56102527
  N      6.86111291      2.46134681      5.68385631
  C      6.32315248      1.78655659      6.73714606
  C      5.42767693      0.90042537      6.22586470
  C      4.65164198      0.28414341      3.94420010
  C      5.22182965     -1.12049624      3.77652488
  C      7.87165185      3.47562664      5.80055253
  H      6.52748206      2.34037528      3.54724043
  H      6.63174783      2.01296249      7.74183519
  H      4.76416124      0.21497893      6.70894384
  H      3.63201212      0.24927512      4.33888517
  H      4.66242382      0.80759169      2.98825837
  H      4.59526833     -1.68688188      3.09304530
  H      5.25702817     -1.64105581      4.73065467
  H      6.22728109     -1.06966420      3.36432978
  H      8.82620035      3.10222330      5.42860333
  H      7.96818424      3.73506649      6.85842541
  H      7.59425536      4.35324628      5.22109812
  N      4.33067173      5.26624841      7.70451302
  C      4.54783204      4.12523052      8.35034269
  N      3.41053057      3.44620435      8.41638335
  C      2.44262115      4.17309324      7.79024903
  C      3.01862862      5.32125072      7.34154711
  C      5.34283131      6.25436706      7.41994131
  C      5.41366064      6.52776894      5.92336673
  C      3.23167720      2.13632528      8.97005025
  H      5.51781733      3.83243017      8.74743668
  H      1.44117684      3.81078940      7.69402068
  H      2.61258081      6.15042199      6.78198221
  H      5.09319104      7.17859628      7.94989730
  H      6.28805019      5.86354960      7.80545960
  H      6.25731155      7.17746898      5.70795911
  H      4.49889024      7.01585298      5.59098477
  H      5.53655551      5.59312942      5.38047199
  H      2.85357585      1.48460891      8.17529066
  H      2.50594387      2.16333450      9.78351719
  H      4.18599120      1.76798043      9.33635166
  N      2.05141890      4.14947659      3.82151850
  C      2.84534369      5.18374158      3.57004394
  N      3.83683023      4.77681346      2.78284021
  C      3.66555878      3.45156600      2.51935280
  C      2.54079255      3.05699016      3.17451614
  C      0.85603249      4.18063394      4.62334954
  C     -0.38635267      4.17825696      3.73840654
  C      4.91185630      5.56945899      2.25619653
  H      2.70009749      6.17363676      3.99969907
  H      4.38913994      2.92286636      1.92586472
  H      2.08232304      2.09544336      3.26976849
  H      0.87474470      3.29546035      5.26547486
  H      0.88796206      5.08868002      5.22707690
  H     -1.27629784      4.18606427      4.36111280
  H     -0.41066166      3.29085153      3.10941981
  H     -0.39814237      5.06252989      3.10473477
  H      4.59375492      6.07761681      1.34429729
  H      5.73961496      4.89621569      2.01436945
  H      5.21759962      6.31603724      2.98549831
 Cl      6.70041868      2.79825175      1.50015868
 Cl      2.12994933      7.73716527      5.28461529
 Cl      2.19462585      1.34853229      5.95215563
 Cl      7.56665477      3.64181369      9.17261105
 Cl      5.99699683     32.51288796     28.68307205

