#B3LYP/6-31+G(d) OPT FREQ

62, Energy =    -96.26985521 au

0 1
  N      1.31441985      4.88819464      6.51609884
  C      2.59329657      4.86339947      6.16060783
  N      2.77384035      5.67367642      5.12934997
  C      1.57294908      6.22469250      4.80629703
  C      0.65601502      5.73338254      5.68124649
  C      0.74523702      4.17983732      7.63240779
  C      0.94974614      4.97279085      8.91897750
  C      4.01114625      5.82870578      4.42275508
  H      3.39098973      4.31914454      6.63694893
  H      1.45178560      6.90020050      3.98567608
  H     -0.38885902      5.93868703      5.77868634
  H     -0.32057952      4.04535660      7.43718686
  H      1.22455620      3.19889115      7.69306384
  H      0.46673047      4.46739332      9.75090016
  H      0.51440388      5.96485725      8.80506126
  H      2.01076573      5.07742396      9.13231303
  H      4.17619785      6.87787958      4.18125861
  H      3.97523546      5.24125844      3.50339901
  H      4.81619219      5.45549597      5.05889582
  N      5.24233380      8.45778682      8.12703176
  C      4.55088568      9.53539306      8.47723526
  N      3.25569870      9.27838795      8.32227494
  C      3.11889761      8.00140231      7.86448084
  C      4.37024871      7.48178577      7.74093069
  C      6.68164357      8.36072398      8.17014556
  C      7.12262827      7.20086122      9.05301303
  C      2.16247168     10.16903225      8.59264929
  H      5.02336570     10.45546847      8.81743855
  H      2.13987584      7.60172719      7.67301661
  H      4.70626506      6.50634338      7.43577820
  H      7.05119519      8.20561293      7.15210981
  H      7.05116805      9.31921754      8.54849230
  H      8.20760614      7.17470863      9.10374538
  H      6.77153931      6.25612788      8.64435817
  H      6.72947498      7.32143415     10.05985372
  H      2.15555182     10.44740292      9.64626085
  H      1.23263528      9.64962636      8.34285798
  H      2.25634329     11.07413795      7.99344493
  N      4.60827256      1.06688718      3.93018607
  C      3.63942311      0.87733389      3.04336596
  N      4.00633593     -0.08639307      2.20325760
  C      5.24123040     -0.53027140      2.56250430
  C      5.61942184      0.19443932      3.65089087
  C      4.54321038      2.00466172      5.02396200
  C      4.33635068      1.29245775      6.35460123
  C      3.25932734     -0.59709340      1.08825553
  H      2.72907041      1.46737527      3.03790446
  H      5.70920262     -1.32855422      2.00554980
  H      6.51860698      0.16255815      4.23051328
  H      5.46458689      2.58844686      5.06529650
  H      3.70001077      2.67000396      4.82291427
  H      4.46971641      2.01941190      7.15030858
  H      5.06753900      0.49703049      6.48989815
  H      3.33587444      0.87066407      6.41413590
  H      2.27976389     -0.94152429      1.41756533
  H      3.82946948     -1.43171062      0.66087082
  H      3.12460998      0.18106817      0.33707999
 Cl      6.67103519     11.71136940      9.26170942
 Cl      5.69533892      4.44729666      7.06342473
 Cl     -0.22231531      7.98746078      7.67108404
 Cl      1.55468230      3.15553976      3.74673391
 Cl      5.52330606     -2.90233752      0.37018232

