62
Energy =    -96.25933322 au
  N      8.22570708      2.22677850      2.52287537
  C      7.88739422      2.07280885      3.79709917
  N      7.08517891      3.05866389      4.15985471
  C      6.90691605      3.88323176      3.09269113
  C      7.61961403      3.36117627      2.06201663
  C      9.02010771      1.30778828      1.75541330
  C      8.11539963      0.33067976      1.00826931
  C      6.48076091      3.20342404      5.44950912
  H      8.18717181      1.25922198      4.42326285
  H      6.26171258      4.73866799      3.16001517
  H      7.74881307      3.70459468      1.05629971
  H      9.64491133      1.87877943      1.06215462
  H      9.67144450      0.77610089      2.45212961
  H      8.69224760     -0.50153089      0.61299819
  H      7.60690535      0.83056440      0.18693845
  H      7.35684930     -0.04774980      1.69069030
  H      5.91015371      2.30052028      5.66929662
  H      5.81325931      4.06478714      5.41896715
  H      7.25844286      3.33540898      6.20188531
  N      2.63063634      2.96654089      3.49663121
  C      3.64575917      3.22016349      2.68081710
  N      3.23133235      4.01959576      1.70844756
  C      1.91832342      4.30620214      1.91128536
  C      1.53909012      3.64388531      3.03681872
  C      2.71720991      2.17283712      4.69602452
  C      2.72711917      3.07564333      5.92534844
  C      4.00661465      4.55653689      0.62894088
  H      4.61807690      2.77401400      2.78519844
  H      1.37513690      4.89828299      1.19484630
  H      0.59396228      3.60779349      3.53806715
  H      1.86656655      1.48402021      4.72355527
  H      3.64056723      1.59074372      4.62313803
  H      3.05136339      2.52067829      6.80096782
  H      1.73662380      3.48621332      6.11456565
  H      3.41156967      3.90368609      5.75530541
  H      4.51742409      5.46123941      0.96197456
  H      3.31456486      4.80737924     -0.18436703
  H      4.74367330      3.82582248      0.30244117
  N      8.91199503      8.69380349      4.02516156
  C      9.51840402      7.95670323      4.95175966
  N      8.71173692      6.96650084      5.31571716
  C      7.55863994      7.06484304      4.59756027
  C      7.68758781      8.14790772      3.78477421
  C      9.49574378      9.84307817      3.38213884
  C     10.16865450      9.44253650      2.07380848
  C      9.01958136      5.93571074      6.26282385
  H     10.47050888      8.23409636      5.38096530
  H      6.71374273      6.40917582      4.71828386
  H      6.99606565      8.55779179      3.07847106
  H      8.70643829     10.57593741      3.19838898
  H     10.23648205     10.25427031      4.08301512
  H     10.59740265     10.32097438      1.59983651
  H      9.45410452      8.98498057      1.39064337
  H     10.96746906      8.73335707      2.27356474
  H      9.39257574      5.03582159      5.74506628
  H      8.12061026      5.67479469      6.81759069
  H      9.79092821      6.28913807      6.94338075
 Cl      5.45521779      0.51033688      3.41155860
 Cl      1.26301751      5.16732006     -1.18016085
 Cl      4.48944823      5.75367467      4.40297573
 Cl     10.17776590      3.20962307      4.77020815
 Cl     11.51986302     10.20176807      5.92112353
