62
Energy =    -95.85263406 au
  N      0.60110477      2.62503896      1.42761097
  C      1.35116785      3.10840473      2.42505634
  N      0.84197162      2.66842079      3.58006224
  C     -0.23431248      1.86813886      3.31463429
  C     -0.38656143      1.83887792      1.95403665
  C      0.85827254      2.82687397     -0.00296714
  C      1.14272927      1.51112018     -0.70286026
  C      1.45301530      2.84083692      4.89302851
  H      2.25061092      3.68777283      2.32043264
  H     -0.78189054      1.36989078      4.09340408
  H     -1.08856198      1.30551032      1.34031192
  H     -0.01330265      3.32717947     -0.42409408
  H      1.70805515      3.50221526     -0.07011597
  H      1.33477513      1.70728158     -1.75682294
  H      0.29955819      0.82800244     -0.62472087
  H      2.01006388      1.02475565     -0.26748659
  H      1.90809548      1.89896546      5.18721189
  H      0.68500022      3.14033065      5.60096976
  H      2.22558587      3.59800361      4.82198248
  N      2.93536725      9.11391682      1.44219180
  C      3.96794788      8.62129377      0.74776100
  N      4.09086821      9.33299416     -0.37708496
  C      3.13869431     10.31408251     -0.38809155
  C      2.40856100     10.17736612      0.76233265
  C      2.50289860      8.64931255      2.76527158
  C      2.64007858      9.74469196      3.80608840
  C      5.18518867      9.21813365     -1.33429545
  H      4.63297545      7.83929499      1.06686535
  H      3.07039684     11.03533867     -1.18162811
  H      1.59501103     10.76334754      1.14795687
  H      1.47186273      8.30958299      2.67122027
  H      3.12633572      7.79215615      3.00885807
  H      2.31675818      9.35617654      4.77082563
  H      2.02848463     10.60940028      3.55724019
  H      3.67158532     10.07410730      3.88256993
  H      5.85649780     10.06071682     -1.19230484
  H      4.77301387      9.21353423     -2.33968853
  H      5.72648892      8.29975034     -1.13736820
  N     -0.41991592      6.32413755     -0.20138090
  C     -0.24833003      5.92496588      1.06446056
  N     -1.42480105      5.49079068      1.52740021
  C     -2.35697531      5.58816288      0.53198049
  C     -1.72236050      6.11354850     -0.56186404
  C      0.64115153      6.81531568     -1.08812002
  C      0.82470616      5.90264977     -2.28616955
  C     -1.63613196      4.82958361      2.81002510
  H      0.68423510      5.88704123      1.59784161
  H     -3.37132121      5.25945229      0.66474725
  H     -2.08781826      6.31786263     -1.55112647
  H      0.37230382      7.82724463     -1.38981110
  H      1.54583128      6.86492212     -0.48660604
  H      1.62373200      6.29873477     -2.91136761
  H     -0.08357642      5.83973174     -2.88178448
  H      1.08685463      4.89876916     -1.96699571
  H     -1.75705426      3.76442319      2.63233220
  H     -2.52168604      5.24922670      3.27951217
  H     -0.76183025      4.98569981      3.43166685
 Cl      1.92440367      7.91074326      6.86395841
 Cl      7.45581474      8.05712335      4.36454135
 Cl      1.31336371      6.39288541      9.53254167
 Cl      3.27715911      9.64868793      8.33231569
 Cl      0.49744912      8.14409871      0.83369236
