#B3LYP/6-31+G(d) OPT FREQ

62, Energy =    -96.25915696 au

0 1
  N      1.01123503      5.46552528      5.49717245
  C      0.79834642      5.71762535      4.20860494
  N      0.90376875      4.58817071      3.51835735
  C      1.12550264      3.57549644      4.40252563
  C      1.19169128      4.12442948      5.64457601
  C      0.95042968      6.41004794      6.58330992
  C     -0.46143664      6.44738077      7.16119609
  C      0.73163073      4.49329678      2.09949870
  H      0.65550951      6.68387519      3.77246260
  H      1.21477127      2.55581658      4.08699012
  H      1.39627737      3.69939781      6.60633187
  H      1.67955526      6.09442342      7.33740069
  H      1.22662876      7.39187820      6.19337960
  H     -0.56891790      7.28956299      7.83940055
  H     -0.66877418      5.52938947      7.70528328
  H     -1.18066722      6.53869902      6.34925276
  H      0.70355493      3.44737353      1.80232569
  H      1.56204194      5.00441351      1.59479716
  H     -0.21088496      4.97562047      1.83777286
  N      4.52023705      3.26277618      3.29925829
  C      4.49931775      2.29453530      4.20958644
  N      4.29535307      2.82831267      5.40701916
  C      4.19839202      4.17879134      5.26519608
  C      4.33795500      4.45335920      3.94027038
  C      4.73049916      3.12160830      1.87901450
  C      3.93985709      1.95605577      1.30119077
  C      4.24734063      2.10701631      6.64455613
  H      4.63569883      1.25111354      4.02053522
  H      4.01916116      4.80137870      6.12178591
  H      4.28075574      5.36696716      3.37954011
  H      4.41058913      4.06703449      1.41931684
  H      5.79955271      2.97306571      1.69785328
  H      4.03090955      1.96605931      0.21866327
  H      2.88731210      2.05365807      1.55558819
  H      4.30930771      1.00118403      1.67016843
  H      4.03425830      2.81581283      7.44781279
  H      5.20819974      1.61643811      6.80530409
  H      3.46486546      1.34837759      6.60772534
  N      8.86702113      4.18841848      6.56222610
  C      9.97688580      4.78559976      6.98279035
  N     10.78529411      4.97116325      5.94428953
  C     10.16902628      4.48090854      4.82945123
  C      8.96032020      3.99494545      5.21874395
  C      7.69466926      3.85719456      7.33971030
  C      6.78067725      5.07036321      7.45413361
  C     12.08488033      5.57702154      6.01135055
  H     10.26544282      5.06165001      7.99139256
  H     10.62551382      4.51287259      3.86179727
  H      8.19862231      3.45777814      4.68131840
  H      7.19379521      3.03900475      6.81622676
  H      8.01330269      3.52389682      8.32884297
  H      5.85700121      4.80563588      7.96280748
  H      6.52566370      5.44377810      6.46486763
  H      7.27123696      5.86299942      8.01526192
  H     12.82956879      4.91601539      5.56786899
  H     12.31693433      5.74420594      7.07262503
  H     12.08710561      6.52895087      5.47889886
 Cl      3.51266438      6.09480284      1.11363858
 Cl     11.99857606      5.71318072      9.24928529
 Cl      7.11000692      1.42280146      4.78828697
 Cl     -1.86998218      5.83315902      3.97943465
 Cl      3.28503620      4.72935230      8.45401570

