#B3LYP/6-31+G(d) OPT FREQ

62, Energy =    -96.26534953 au

0 1
  N      5.73529987      8.55860567      2.32764724
  C      6.52813683      8.71294452      3.38631391
  N      7.68361496      8.10776935      3.14963128
  C      7.63212447      7.55179514      1.90843939
  C      6.40879251      7.84067248      1.38659246
  C      4.39491662      9.06683403      2.17894160
  C      4.41350290     10.56704858      1.90644733
  C      8.74450867      7.96685937      4.10319119
  H      6.29981077      9.19032062      4.33294064
  H      8.43864943      6.97240495      1.51210497
  H      5.92743996      7.55741955      0.46809106
  H      3.93733602      8.52507277      1.34091703
  H      3.83975539      8.86378525      3.09763511
  H      3.39479369     10.93050408      1.80433266
  H      4.94819289     10.77437086      0.98210344
  H      4.89701922     11.09822703      2.72466723
  H      9.66141807      8.42359189      3.72993156
  H      8.90371033      6.89901226      4.26784341
  H      8.43140834      8.44063404      5.03411739
  N      6.22955802      5.19509316      7.55551044
  C      5.27830956      5.01672712      8.47265651
  N      4.34304500      4.20537897      7.98604464
  C      4.74318353      3.80740579      6.74266314
  C      5.92163191      4.42446597      6.47143093
  C      7.38458319      6.04872959      7.70135731
  C      8.64125081      5.37713745      7.16637123
  C      3.13059657      3.81942105      8.64725556
  H      5.21763955      5.53303404      9.40724772
  H      4.16269524      3.12685809      6.15495222
  H      6.53904760      4.38719078      5.59411350
  H      7.20400410      6.99521509      7.17716072
  H      7.49684625      6.25292301      8.76821726
  H      9.49779592      6.02358341      7.33969826
  H      8.55842708      5.19136410      6.09930656
  H      8.79813761      4.43223069      7.68154926
  H      3.28261366      3.88239864      9.72241466
  H      2.88293677      2.79361315      8.37994080
  H      2.30308100      4.47577489      8.34254437
  N      3.74931810      6.47823224      5.15925797
  C      4.62460189      6.18813627      4.19777249
  N      4.04403378      5.40302439      3.29911745
  C      2.76536706      5.17527156      3.70744309
  C      2.57822606      5.84594656      4.87738998
  C      3.94959362      7.36965373      6.27821929
  C      2.85139616      8.42579317      6.32949318
  C      4.64247605      4.92539683      2.08697532
  H      5.66281050      6.45858583      4.18301860
  H      2.08651586      4.57409163      3.13928089
  H      1.74014481      5.87288682      5.56094054
  H      3.90711456      6.79164478      7.20317225
  H      4.93267331      7.84016071      6.18741576
  H      3.12408801      9.17603192      7.06550205
  H      1.90822754      7.97110511      6.62171606
  H      2.73573973      8.91506798      5.36417337
  H      4.39087408      5.59074178      1.25071989
  H      4.27124955      3.92676822      1.86563542
  H      5.72392514      4.89627827      2.21823815
 Cl      6.71391782      9.44707862      6.44098967
 Cl      3.76059544      7.08454353     -0.42178999
 Cl      7.67627904      4.92534454      3.56946143
 Cl      6.39659016      3.40647426     10.21733493
 Cl      0.61081633      5.78049916      7.44270299

