#B3LYP/6-31+G(d) OPT FREQ

62, Energy =    -96.26785700 au

0 1
  N      4.20588481      7.88978747      6.48254279
  C      3.34641560      8.89322258      6.63272577
  N      2.13715401      8.47210056      6.28498585
  C      2.21864822      7.16500401      5.90486436
  C      3.52232204      6.79944929      6.03465231
  C      5.62163007      7.92513498      6.75314377
  C      5.88393009      8.08961040      8.24598279
  C      0.96107424      9.29427505      6.30831403
  H      3.53399543      9.91438307      6.96390657
  H      1.37733791      6.60666097      5.53327442
  H      4.03627173      5.88608932      5.80493303
  H      6.04413786      6.99097849      6.37245342
  H      6.06137782      8.76462368      6.20794950
  H      6.95379168      8.08325565      8.43486474
  H      5.42846689      7.27573430      8.80451290
  H      5.46996552      9.03161746      8.59798675
  H      0.23392769      8.88925255      7.01232453
  H      0.50898648      9.32437198      5.31721237
  H      1.26122499     10.29842999      6.61973346
  N      3.88338484      2.78780355      8.10933665
  C      4.01753115      3.16608321      6.84109892
  N      2.85910542      2.99905504      6.21563597
  C      1.96103444      2.49768869      7.11138309
  C      2.60553410      2.36766259      8.30416670
  C      4.89792080      2.85076988      9.13316730
  C      5.27580920      4.30013540      9.41310874
  C      2.62734859      3.27890987      4.82811155
  H      4.90111477      3.57689091      6.37193860
  H      0.94793781      2.29000128      6.83749199
  H      2.30829949      1.98530442      9.27028435
  H      4.47724294      2.36506054     10.02486759
  H      5.77600822      2.29470815      8.79403959
  H      6.01784002      4.33791110     10.20530236
  H      4.39879746      4.85697475      9.73495999
  H      5.68848766      4.76644439      8.52045233
  H      1.79976150      3.98773065      4.70702704
  H      2.37624347      2.35954096      4.29790892
  H      3.53717266      3.70307515      4.41043400
  N      2.06562367      3.85632969      0.54786721
  C      2.13702632      4.62888632      1.62797971
  N      3.33559273      5.19928463      1.66995528
  C      4.04826992      4.77448864      0.58636484
  C      3.24745172      3.93071767     -0.12040880
  C      0.93375571      3.06789420      0.12019477
  C     -0.33541088      3.90778273      0.07675195
  C      3.77491297      6.11406562      2.68433718
  H      1.36485837      4.79390965      2.37205536
  H      5.05351217      5.09501039      0.40836523
  H      3.37725836      3.39136703     -1.04864113
  H      1.18598368      2.67373214     -0.87385836
  H      0.80463523      2.23306379      0.81541277
  H     -1.16310367      3.29149332     -0.26183474
  H     -0.21406333      4.73378959     -0.61968203
  H     -0.57613963      4.30657216      1.05961876
  H      4.14457979      7.03145568      2.22664210
  H      4.57803020      5.67700952      3.28743208
  H      2.93108011      6.33914509      3.33251404
 Cl      2.93353115     11.87983302      7.40817266
 Cl      6.01156000      4.86565538      4.96433858
 Cl      2.99709740      1.20783128     11.28551591
 Cl      2.46658386      2.22816875     -2.73025770
 Cl      0.11890681      5.37275202      4.02738347

