#B3LYP/6-31+G(d) OPT FREQ

16, Energy =   -226.21950915 au

0 1
  N     -1.40535700     -1.54512900      2.29811500
  H     -0.98023400     -2.33723300      1.80799400
  H     -0.60884000     -1.01926600      2.66853700
  H     -1.75213400     -0.94512600      1.54050000
  N      1.84723800     -1.97396800     -1.56117300
  H      1.19333400     -1.65897500     -2.28364000
  H      2.46529600     -1.17347000     -1.40521400
  H      1.27430800     -2.00708500     -0.71137600
  N      1.75141500      2.34812800      1.12965800
  H      1.23599000      1.92656300      1.90878400
  H      2.22054300      1.54776000      0.69155700
  H      1.01733200      2.58730700      0.45564800
  N     -2.17846600      1.17908600     -1.88464900
  H     -2.37349200      1.76378000     -1.06689700
  H     -1.17582300      0.97916100     -1.80692000
  H     -2.62009100      0.27976500     -1.67263400

