#B3LYP/6-31+G(d) OPT FREQ

16, Energy =   -226.22008945 au

0 1
  N      2.13773100     -2.47611200     -0.29620600
  H      2.41235900     -1.48782800     -0.26194000
  H      1.69505200     -2.63567200      0.61309400
  H      1.35689300     -2.48427700     -0.95927300
  N     -1.20086900     -0.02580200      1.64406900
  H     -1.11381900     -0.08902100      2.66441000
  H     -0.79582200      0.88177000      1.38219300
  H     -0.53091600     -0.70466600      1.25687600
  N      1.80242300      2.66887200     -0.35352900
  H      2.11796900      1.70163200     -0.49062700
  H      0.90224600      2.69703500     -0.84204000
  H      1.55004900      2.69958000      0.63892600
  N     -2.79881500     -0.18541900     -1.12279400
  H     -2.22329100     -0.94770700     -1.48777500
  H     -2.58844000     -0.16327500     -0.11734000
  H     -2.36556900      0.66165900     -1.49728200

