#B3LYP/6-31+G(d) OPT FREQ

16, Energy =   -226.21815058 au

0 1
  N     -0.04862800      2.51319400     -0.55932500
  H      0.37045000      3.10317500     -1.28519600
  H     -0.56634900      1.78624400     -1.06527700
  H      0.73695900      1.99985700     -0.13800200
  N     -1.13028500     -0.00035600      1.64434800
  H     -1.14041200      0.97619000      1.33165800
  H     -0.23567800     -0.37196000      1.29597700
  H     -1.05095600      0.03118500      2.66569300
  N     -2.23028900     -1.54065200     -0.98742300
  H     -1.82713200     -0.81549000     -1.58557300
  H     -1.53947100     -2.29397900     -1.00285400
  H     -2.17054400     -1.15273600     -0.03861200
  N      3.25166100     -1.04200000     -0.11126800
  H      2.94107200     -0.17133300     -0.55942400
  H      3.04541600     -0.88293900      0.88002900
  H      2.53943000     -1.71950700     -0.40274200

