16
Energy =   -226.21803114 au
  N     -1.08558300      1.16454800      1.28252300
  H     -0.51728700      0.30711200      1.22617600
  H     -1.21123000      1.36394800      2.28048600
  H     -0.47785300      1.91487400      0.92089800
  N      0.98955100     -2.96063500      0.15975600
  H      1.45613800     -2.67036000      1.03051100
  H      0.02842200     -2.64078700      0.29420900
  H      1.37568200     -2.31625200     -0.54235700
  N      3.14037200      1.51714900     -0.56001200
  H      2.67445100      1.80260700     -1.42450900
  H      2.52016600      1.85935400      0.19004600
  H      2.99897100      0.50514200     -0.52031400
  N     -3.12308300      0.24463500     -0.98595500
  H     -2.48757400      0.25840100     -1.78441800
  H     -3.22047200     -0.75761100     -0.75260800
  H     -2.58821900      0.61369700     -0.19229500
