16
Energy =   -226.21842321 au
  N      1.25038700     -0.37076400      1.65185300
  H      0.97227600      0.58523400      1.38689000
  H      1.15902000     -0.42569700      2.66844400
  H      0.51039700     -0.97487300      1.26337100
  N      2.75678700     -0.65029200     -1.17966200
  H      2.63097700      0.32826900     -1.44976000
  H      2.56358000     -0.65911400     -0.18361900
  H      1.96835600     -1.15017100     -1.58289200
  N     -2.82061500     -1.86502600     -0.32469400
  H     -2.40755600     -1.95787300      0.61283800
  H     -2.96390300     -0.85348000     -0.42500600
  H     -2.02862900     -2.05858300     -0.95471400
  N     -1.15936100      2.84086100     -0.24795800
  H     -0.75106600      2.73812000      0.68854500
  H     -0.33872000      2.84295800     -0.85226100
  H     -1.50511600      1.90175200     -0.46860800
