16
Energy =   -226.21815739 au
  N     -2.22365900     -0.05266700     -1.43070500
  H     -1.48114300     -0.07457300     -2.13167400
  H     -2.01861700     -0.83781200     -0.80532900
  H     -2.03609300      0.78682700     -0.87511600
  N     -0.69517600     -1.93248300      0.88694000
  H      0.11275200     -1.52745000      0.39116900
  H     -0.32493300     -2.74096300      1.39772200
  H     -0.91364600     -1.23585700      1.60763400
  N     -0.74545000      1.97842900      0.82596000
  H     -1.08070200      1.31692800      1.53431600
  H     -0.34437400      2.75980900      1.35439400
  H      0.05899100      1.49920400      0.39509400
  N      3.49796200      0.01035600     -0.49803500
  H      3.10672700      0.81559800      0.00382700
  H      3.11140100     -0.78863400      0.01733800
  H      2.97390200      0.00147700     -1.37849500
