#B3LYP/6-31+G(d) OPT FREQ

16, Energy =   -226.21956235 au

0 1
  N      1.71178900     -0.28443600      2.57059800
  H      1.21977500      0.47030000      2.07908500
  H      1.03168900     -1.05072700      2.57075200
  H      2.43298000     -0.58183200      1.90803100
  N     -0.78934300      2.97691400     -0.39325000
  H     -1.68514100      2.54012700     -0.15826000
  H     -0.28721200      3.02699100      0.49730800
  H     -0.29006400      2.24607800     -0.91401900
  N      1.74362500     -0.95412200     -2.39171400
  H      1.94982400     -0.89742900     -1.38823700
  H      0.79444400     -1.33713700     -2.41455000
  H      1.62810700      0.02312200     -2.67401600
  N     -2.66734000     -1.70337600      0.20741900
  H     -2.09259100     -2.18480700     -0.48980900
  H     -2.12537000     -1.78644200      1.07261500
  H     -2.56755800     -0.71310700     -0.04027200

