#B3LYP/6-31+G(d) OPT FREQ

16, Energy =   -226.21955370 au

0 1
  N     -1.88465900     -0.74066000      2.31672700
  H     -2.35157900     -1.31271900      1.60715800
  H     -1.03370400     -1.26222900      2.54851600
  H     -1.53710900      0.06936100      1.79159900
  N      3.03600600      0.04361200      0.90557400
  H      2.52116600      0.14476100      1.78428900
  H      2.47936300     -0.64041800      0.38065900
  H      2.85838000      0.92259400      0.41172100
  N     -0.84185000      2.82378200     -1.06980200
  H     -0.69865800      1.87840300     -1.44451400
  H     -1.55548100      2.69571900     -0.34641500
  H      0.02112000      3.01033500     -0.54902300
  N     -0.31321200     -2.15136600     -2.18186500
  H      0.66601500     -2.02800100     -1.90693800
  H     -0.82511700     -1.97321500     -1.31017200
  H     -0.51839300     -1.33216300     -2.76131600

