16
Energy =   -226.21550135 au
  N     -1.31430900     -2.06734100      0.72391200
  H     -1.13532700     -2.90366500      1.28977200
  H     -1.33318700     -1.28725200      1.39025800
  H     -0.43875900     -1.89887600      0.20717400
  N      0.18649800      1.94507600      1.10638900
  H      0.85365400      2.14333500      1.84814300
  H      0.54024700      1.12197800      0.60221500
  H     -0.66052300      1.60439900      1.57800900
  N      3.26895700     -0.48812700     -0.69772600
  H      2.84577000      0.39328800     -0.99202800
  H      3.17070000     -0.46517000      0.31917700
  H      2.58281200     -1.19573400     -0.98293500
  N     -2.25596200      0.72028100     -1.34365400
  H     -1.62484300      1.40680100     -0.90748700
  H     -1.75485000      0.39350800     -2.17380700
  H     -2.24198300     -0.08183700     -0.70094600
