#B3LYP/6-31+G(d) OPT FREQ

16, Energy =   -226.21760392 au

0 1
  N      3.92691200     -0.00036500      0.12947700
  H      3.36556000      0.81078700     -0.15876700
  H      3.81555300     -0.01807600      1.14796300
  H      3.35288500     -0.79123600     -0.18816400
  N     -3.05447700      0.01716300      0.22008400
  H     -3.33027400      0.05275100      1.20241500
  H     -2.43134300      0.81913600      0.07265500
  H     -2.45489000     -0.80957700      0.12655800
  N     -0.55276700     -2.13030200     -0.18922000
  H     -0.47879700     -2.27742500     -1.19999900
  H     -0.02315800     -2.90121800      0.23058400
  H      0.02877200     -1.29728200     -0.01078000
  N     -0.53113100      2.10133300     -0.21258300
  H      0.06084900      1.25882900     -0.13861800
  H     -0.09339700      2.76940800      0.42971800
  H     -0.33152500      2.46910900     -1.14786800

