#B3LYP/6-31+G(d) OPT FREQ

16, Energy =   -226.21864084 au

0 1
  N      3.87332900     -1.04440200     -0.17328900
  H      3.78627700     -0.81633700     -1.16762800
  H      3.87031900     -0.13228600      0.29434800
  H      2.95439900     -1.43597800      0.07014700
  N      0.75097100      2.80739700      0.07494300
  H      1.45086000      2.09345300     -0.16483100
  H     -0.12906200      2.39983200     -0.25995500
  H      0.68116500      2.74691200      1.09470900
  N     -3.73361800     -0.12582000     -0.25573300
  H     -2.93382300     -0.74220100     -0.04947200
  H     -3.57992200      0.70894800      0.31306700
  H     -3.59951400      0.17785900     -1.22174100
  N     -0.99770300     -1.62835000      0.33741900
  H     -0.54943700     -2.25769200     -0.33686300
  H     -0.77504400     -2.03433100      1.25195400
  H     -0.42707200     -0.76995900      0.29288000

