16
Energy =   -226.20875622 au
  N     -4.48250300     -0.28660400     -0.37260100
  H     -3.47785500     -0.27218700     -0.12008800
  H     -4.99002100     -0.64441900      0.43513600
  H     -4.79838700      0.67442900     -0.50988500
  N      2.14191800      2.19245900     -0.03659400
  H      1.93633300      1.47675000      0.64103400
  H      2.59971000      1.65778800     -0.78523700
  H      1.23085700      2.42951300     -0.40336500
  N      3.38723500     -1.70012100     -0.05792900
  H      3.87334200     -0.83673300     -0.28607400
  H      2.41191500     -1.41311900      0.02257800
  H      3.45030900     -2.31169900     -0.87004900
  N     -1.08655100     -0.23787000      0.48095600
  H     -0.42550800     -0.15221700     -0.26969100
  H     -0.65007300     -0.97942200      1.03398100
  H     -0.88132000      0.59627300      1.01483700
