16
Energy =   -226.21932861 au
  N      1.77471000      2.71910500     -0.26991400
  H      1.47590600      2.38163200      0.64957900
  H      2.21989700      1.90702200     -0.69019400
  H      0.89401900      2.81074700     -0.78514100
  N     -2.74325100     -0.19899900     -1.24450300
  H     -2.23791200     -1.03678500     -1.54490900
  H     -2.68609300     -0.22021700     -0.21968200
  H     -2.13332900      0.57417200     -1.51981300
  N     -1.34738300     -0.08364600      1.69787400
  H     -0.68607400     -0.57686400      1.07997000
  H     -1.08179000     -0.33033600      2.65691600
  H     -1.08006800      0.89905600      1.59750200
  N      2.23573200     -2.43586300     -0.29460300
  H      1.47286700     -2.18704600     -0.93726800
  H      2.65764800     -1.53404000     -0.07814800
  H      1.74627500     -2.69152500      0.56921600
