16
Energy =   -226.20483759 au
  N     -3.06704900      2.43388300     -0.05472600
  H     -3.02818200      2.51238200     -1.07574400
  H     -3.87336900      1.82789500      0.12671300
  H     -2.26538300      1.83459500      0.17596900
  N      1.34791300     -0.30409900      1.03295100
  H      0.34110900     -0.11389700      0.92603700
  H      1.44123700     -0.54952800      2.02532800
  H      1.46030200     -1.19683800      0.54408300
  N     -3.02541600     -2.26358500     -0.28724900
  H     -3.78514700     -1.58709900     -0.43629400
  H     -2.75068700     -2.56094100     -1.23096300
  H     -2.24415200     -1.66705100      0.02404400
  N      4.77582400      0.35539300     -0.62008800
  H      5.45410700      0.23866400      0.13363100
  H      5.11797600     -0.19550900     -1.40822200
  H      3.91330000     -0.09381500     -0.30079100
