16
Energy =   -226.21973193 au
  N      2.96172800     -1.12433500      0.25602500
  H      2.54193200     -0.33260300     -0.24379100
  H      2.65132600     -0.98883800      1.22262500
  H      2.42010300     -1.92937100     -0.07132900
  N     -1.90598600     -2.16808700     -1.23340200
  H     -0.95547800     -2.45055000     -0.97536100
  H     -2.37894300     -2.03869600     -0.33450200
  H     -1.77823300     -1.21348900     -1.58520400
  N      0.03354200      2.51288000     -1.80600100
  H     -0.39623800      1.79953100     -2.40159500
  H     -0.25063400      2.23960000     -0.85798000
  H      1.03458400      2.29935900     -1.83230000
  N     -1.10128100      0.79797200      2.77442100
  H     -1.54228800      0.20063600      2.06690600
  H     -0.11017600      0.54695800      2.70266900
  H     -1.15197900      1.73844700      2.37256700
