#B3LYP/6-31+G(d) OPT FREQ

16, Energy =   -226.21825268 au

0 1
  N     -3.39557800     -0.63832500     -0.15449400
  H     -3.26259700      0.29526900      0.25039300
  H     -2.78467600     -0.62649500     -0.97839400
  H     -2.89464400     -1.24807400      0.49955800
  N      1.29273300      0.45254600     -1.66737600
  H      1.26573000      0.97294700     -2.54813600
  H      1.19725500      1.14844200     -0.91811900
  H      0.41942500     -0.08462400     -1.62702800
  N      0.31145400      1.78596100      1.01542600
  H     -0.59023000      1.37694900      0.72188400
  H      0.07248100      2.58200600      1.61845900
  H      0.71943000      1.07383100      1.63391500
  N      1.90877600     -1.77215500      0.69601100
  H      2.09346000     -1.18443500      1.51204700
  H      0.89951900     -1.94363900      0.72339300
  H      2.04315300     -1.15836700     -0.11494500

