#B3LYP/6-31+G(d) OPT FREQ

16, Energy =   -226.22011265 au

0 1
  N     -1.90836300     -2.64525400     -0.29280900
  H     -2.24410600     -1.68394900     -0.41819300
  H     -1.02876800     -2.66229700     -0.81816200
  H     -1.61310800     -2.66970600      0.68796500
  N     -1.98927000      2.57746700     -0.34408500
  H     -1.12381600      2.64467900     -0.88824700
  H     -2.26220100      1.59368700     -0.44820500
  H     -1.67708100      2.63695800      0.63002700
  N      1.21355900      0.06570800      1.65344600
  H      0.66555200      0.86433300      1.30731700
  H      1.13347300      0.08897600      2.67602400
  H      0.66531400     -0.74834000      1.34507100
  N      2.74771100     -0.02194700     -1.15070900
  H      2.57835600      0.00347400     -0.13795300
  H      2.11631500     -0.74923700     -1.49488500
  H      2.34460900      0.84960000     -1.50165900

