#B3LYP/6-31+G(d) OPT FREQ

16, Energy =   -226.21792380 au

0 1
  N      2.32104000      2.13856000      0.54673000
  H      2.85052200      1.28657000      0.34749400
  H      1.72111000      2.24895500     -0.27440600
  H      1.66132900      1.84459000      1.27203500
  N      1.65620900     -2.54586600     -0.58234300
  H      2.14148100     -1.64006800     -0.58185200
  H      0.94367800     -2.41498400      0.14695000
  H      1.11774100     -2.53242400     -1.45387800
  N     -2.02338000     -0.51649800      1.66188200
  H     -1.81102900     -1.22770600      2.36764500
  H     -1.16079500      0.03622900      1.57061900
  H     -2.07097600     -1.02801400      0.77648400
  N     -1.98414000      0.99654500     -1.65787300
  H     -1.34486900      1.78840200     -1.55298500
  H     -1.36111800      0.18333800     -1.63419300
  H     -2.47518100      0.94592900     -0.76268300

