16
Energy =   -226.22010722 au
  N      1.92096500     -2.62435100     -0.32743500
  H      2.23790600     -1.65250400     -0.42123200
  H      1.59935600     -2.67783300      0.64398700
  H      1.05688000     -2.64765500     -0.87775900
  N     -1.21914400     -0.00178900      1.65197800
  H     -1.13631600     -0.00588200      2.67453100
  H     -0.66355700      0.79973700      1.32521200
  H     -0.68019100     -0.81351800      1.32183000
  N      1.99973700      2.58226100     -0.30824400
  H      1.69399000      2.62531500      0.66866400
  H      2.26367700      1.59858900     -0.43340000
  H      1.13152900      2.66696300     -0.84525300
  N     -2.76196500      0.02579300     -1.14922900
  H     -2.58907000      0.00632500     -0.13667900
  H     -2.35966400      0.91208000     -1.46191500
  H     -2.13169900     -0.68501100     -1.52747200
