16
Energy =   -226.21960756 au
  N     -2.87206200      0.78278700     -1.17716500
  H     -2.59202900     -0.05467200     -0.65517300
  H     -2.43055500      1.54506100     -0.65423300
  H     -2.32830000      0.72641600     -2.04285000
  N     -0.33705800     -2.65293200      1.42161800
  H      0.17000300     -2.21455100      0.64351100
  H     -0.01884000     -2.13464000      2.24525000
  H     -1.30331900     -2.34339000      1.28102400
  N      0.96316500      2.16072400      1.89842800
  H      0.22269900      2.59796200      1.34167600
  H      0.68550300      1.17259400      1.92820900
  H      1.78352900      2.16800900      1.28523400
  N      2.25062400     -0.31173800     -2.11074500
  H      1.39306900     -0.53092800     -2.62562000
  H      1.94234100      0.37157800     -1.40887900
  H      2.44322000     -1.15532200     -1.56310300
