#B3LYP/6-31+G(d) OPT FREQ

16, Energy =   -226.21812091 au

0 1
  N      1.64752100      0.89549400      1.44627100
  H      0.89560600      0.19568700      1.50474600
  H      1.35850000      1.49220400      0.66122500
  H      1.55077300      1.47701900      2.28685600
  N      2.68133200     -1.05862400     -0.97862700
  H      1.93513000     -1.73898800     -0.81517100
  H      2.28341500     -0.41567100     -1.66795900
  H      2.71822600     -0.50841200     -0.11327500
  N     -1.66323400      1.25807300     -1.15979600
  H     -1.37195800      1.63398100     -0.24888400
  H     -1.57066300      2.03618600     -1.82313100
  H     -0.91185900      0.59680600     -1.39873300
  N     -2.66481500     -1.30384500      0.66257300
  H     -2.70257700     -0.53443900     -0.01543800
  H     -1.90336200     -1.89889700      0.32654000
  H     -2.28685400     -0.87317000      1.51027000

