#B3LYP/6-31+G(d) OPT FREQ

16, Energy =   -226.21863914 au

0 1
  N     -3.90511500      1.02588800     -0.10441300
  H     -3.88109500      0.13770900      0.40656700
  H     -2.97347600      1.42370100      0.07210400
  H     -3.86995600      0.74873900     -1.08946000
  N      0.98871900      1.63747300      0.22702300
  H      0.73041900      2.08994400      1.10990800
  H      0.41929300      0.77730000      0.20569500
  H      0.56700300      2.23062400     -0.49537700
  N      3.75646300      0.12991000     -0.15606900
  H      3.69899500     -0.18819400     -1.12503800
  H      2.94359300      0.74861600     -0.02138800
  H      3.55875400     -0.69609900      0.41180600
  N     -0.73195500     -2.80076400      0.03129100
  H     -0.62717700     -2.74776000      1.04844800
  H     -1.45178100     -2.09696900     -0.17762400
  H      0.12864300     -2.37516200     -0.33046100

