16
Energy =   -226.21997690 au
  N      1.23864700     -0.02772100      1.67211800
  H      0.72627300      0.78381400      1.30273000
  H      1.12583500      0.00555000      2.69074700
  H      0.67525100     -0.82556400      1.35124200
  N      2.74036700     -0.04665600     -1.17659500
  H      2.31884900      0.82978000     -1.49215100
  H      2.59813200     -0.05328600     -0.15973500
  H      2.11121100     -0.77286700     -1.52555800
  N     -1.99424100     -2.60466200     -0.30419400
  H     -1.02590400     -2.83264600     -0.55022800
  H     -1.93104300     -2.27373300      0.66381200
  H     -2.18602900     -1.74861600     -0.83532200
  N     -1.92146100      2.64880200     -0.31201700
  H     -2.20941300      1.66342200     -0.34473100
  H     -1.56495200      2.76246100      0.64185700
  H     -1.08139300      2.67334000     -0.89784600
