439
Energy = -13269.73461530 au
 Ti      1.57016718      0.72892561      4.68821106
 Ti      1.57417502      3.69025638      4.69947232
 Ti      1.57016866      6.63371705      4.66955759
 Ti      1.59008329     12.54833102      4.68311135
 Ti      1.54654785      9.59039379      4.67492856
 Ti      1.60374216     15.50033459      4.67777548
 Ti      7.86798497      0.72551701      4.73349021
 Ti     14.19137725      0.72373407      4.74391728
 Ti      7.88532126      3.68433645      4.73778525
 Ti     14.19561102      3.67186619      4.74493036
 Ti      7.87208174      6.64713796      4.76357517
 Ti     14.18811077      6.63530739      4.73770775
 Ti      7.87120984     12.53349355      4.77706838
 Ti     14.22493314     12.54374739      4.73660721
 Ti      7.85748988      9.59843574      4.76903675
 Ti     14.17421686      9.59937227      4.74266616
 Ti      7.89314493     15.49438655      4.73482774
 Ti     14.22491126     15.49841552      4.73572492
 Ti      4.71953675      2.17791502      5.28984393
 Ti      4.71689483      5.11017966      5.20924793
 Ti      4.68398396      8.11272637      5.19012544
 Ti      4.72248934     14.02486774      5.30010079
 Ti      4.68687823     11.04141256      5.25712118
 Ti      4.72405538     16.96207121      5.29314873
 Ti     11.03116835      2.14580876      5.29171853
 Ti     17.32629075      2.19427997      5.16837477
 Ti     11.00860193      4.93993319      4.86998038
 Ti     17.29582807      5.14583880      5.14523004
 Ti     11.01699567      8.35774772      4.87503711
 Ti     17.30288816      8.11266932      5.17349609
 Ti     11.04351314     14.07247442      5.28582976
 Ti     17.33378189     14.02412738      5.15721694
 Ti     11.03512053     11.17407930      5.26822758
 Ti     17.32358154     11.07091961      5.14444883
 Ti     11.03902926     16.96937204      5.28956859
 Ti     17.32705949     16.96958157      5.13342525
  O      4.72965438      0.71783641      3.75488524
  O      4.72372574      3.69219512      3.74116724
  O      4.71853257      6.61723738      3.68968047
  O      4.65371119     12.53790076      3.75761781
  O      4.65244108      9.59835627      3.69503854
  O      4.66008256     15.50155285      3.75643063
  O     11.03080036      0.71864002      3.76475838
  O     17.25777797      0.72298551      3.66018155
  O     11.02639683      3.61943706      3.67473887
  O     17.18856455      3.69621656      3.65958819
  O     10.96059095      6.62718447      3.75897845
  O     17.18681309      6.62509173      3.65642854
  O     11.02469646     12.53166549      3.75670864
  O     17.18763214     12.52719199      3.65403666
  O     11.02921533      9.67740494      3.67083395
  O     17.25501582      9.59870687      3.65674459
  O     11.02218996     15.51097716      3.75718212
  O     17.18515994     15.50699229      3.65114625
  O      4.72946646      0.71813926      6.38159202
  O      4.72699467      3.69189063      6.33137233
  O      4.73008121      6.62313164      6.32257383
  O      4.73295769      9.54732538      6.31563719
  O      4.80914542     12.51864056      6.39426598
  O      4.72808682     15.49438706      6.38447713
  O     11.03262125      0.70988668      6.39758686
  O     17.40939670      0.71700945      6.23855434
  O     11.03006092      3.70659164      6.24326554
  O     17.40753412      3.69230481      6.23836370
  O     17.34194274      6.62728027      6.23679989
  O     11.03490771     12.59929667      6.39292376
  O     17.40864519     12.54026737      6.23548963
  O     11.02700066      9.59935002      6.21631201
  O     17.40535956      9.59319420      6.23834279
  O     11.03128739     15.50990621      6.39276867
  O     17.41184843     15.50019790      6.23449477
  O      2.76717147      2.20635991      5.12108309
  O      2.76081298      5.18065002      5.12567555
  O      2.75386497      8.11307326      5.12019273
  O      2.75861703     14.01378557      5.20226743
  O      2.76296849     11.03940357      5.13100850
  O      2.76549985     17.00096210      5.12932874
  O      9.06717220      2.19938225      5.12305779
  O     15.35442120      2.20518778      5.19697772
  O      9.09339943      5.18566555      5.12823209
  O     15.29293524      5.13793276      5.27359671
  O      9.09099330      8.10353071      5.05719260
  O     15.30559508      8.11977356      5.20686720
  O      9.06974626     14.01966753      5.12223055
  O     15.35920884     14.01935011      5.20578222
  O      9.06083457     11.09340827      5.11811914
  O     15.35436064     11.03537792      5.20014715
  O      9.06932502     16.99294643      5.12630848
  O     15.35806786     16.99900706      5.20147283
  O      0.39380779      2.20996564      5.03183565
  O      0.37581403      5.17875494      4.96689903
  O      0.37573571      8.10881988      4.96580575
  O      0.38662407     14.02041396      4.89199705
  O      0.39692614     11.09364654      5.02787464
  O      0.39368381     16.94141963      4.96348159
  O      6.68663002      2.20817670      5.12232009
  O     12.98611606      2.20325716      5.11751655
  O      6.69143448      5.13068681      5.11794529
  O     12.92140640      5.19703491      5.04987538
  O      6.64126847      8.11713910      4.95693587
  O     12.92327247      8.09855790      5.04237071
  O      6.67562872     14.03024352      5.11655382
  O     12.98737035     14.02030381      5.04844015
  O      6.62545091     11.03230735      4.95290290
  O     12.98771856     11.09944257      5.11981507
  O      6.68432757     16.94775843      5.12344887
  O     12.98967428     16.94816713      5.11662380
 Ti      1.57410895      2.20223398      1.50501056
 Ti      1.57490099      5.15606220      1.50953864
 Ti      1.58624298      8.11317177      1.47744481
 Ti      1.56001682     14.02152491      1.49906827
 Ti      1.57404523     11.07345866      1.50322653
 Ti      1.57204208     16.97191837      1.50444480
 Ti      7.88245392      2.21134016      1.50717422
 Ti     14.25140271      2.20140712      1.50238905
 Ti      7.87912174      5.17605792      1.52090043
 Ti     14.24326309      5.16715473      1.51122643
 Ti      7.87891044      8.12311616      1.52523820
 Ti     14.25537613      8.11560981      1.50019262
 Ti      7.87688641     14.00681861      1.51642269
 Ti     14.19751024     14.02077191      1.49516549
 Ti      7.87633948     11.06020341      1.55169370
 Ti     14.25264941     11.07093543      1.50898463
 Ti      7.88231073     16.96605009      1.51319481
 Ti     14.21841653     16.97376658      1.51496509
 Ti      4.72771793      0.72158048      1.92339574
 Ti      4.71693537      3.67208989      1.89851735
 Ti      4.72236852      6.62721271      1.87107772
 Ti      4.70783099     12.55242898      1.92747376
 Ti      4.71297486      9.60196079      1.86478656
 Ti      4.69925437     15.49883519      1.91126222
 Ti     11.04331880      0.72667844      1.93101176
 Ti     17.39172041      0.71801532      1.76468948
 Ti     11.08458779      3.66517751      1.60955771
 Ti     17.35701630      3.68425807      1.76953148
 Ti     11.03064554      6.63643665      1.86110511
 Ti     17.38277165      6.63641085      1.78307184
 Ti     11.02956743     12.54895511      1.92535713
 Ti     17.34590404     12.55092731      1.77303876
 Ti     11.09361529      9.61240639      1.63286420
 Ti     17.39975046      9.59516970      1.77514990
 Ti     11.04728289     15.50770675      1.91178910
 Ti     17.33489722     15.49787229      1.76151596
  O      1.64786199      0.72222046      2.89946040
  O      1.65074508      3.68675584      2.91413737
  O      1.65518067      6.62441893      2.88487357
  O      1.65489017     12.53509738      2.89504666
  O      1.65034489      9.60152581      2.89177002
  O      1.65900440     15.50499645      2.88996436
  O      7.87612553      0.72003470      2.95423093
  O     14.25832059      0.72735845      2.95794708
  O      7.88001435      3.69314550      2.95643651
  O     14.25926006      3.69427903      2.95943114
  O      7.88013705      6.61642729      2.95714365
  O     14.26292926      6.62363282      2.95694071
  O      7.87972864     12.53648902      2.96136037
  O     14.26103093     12.52624188      2.95265546
  O      7.88425853      9.59772977      2.95349188
  O     14.25749407      9.60153550      2.95821281
  O      7.87836961     15.50670366      2.95483472
  O     14.26209364     15.50882224      2.95366959
  O      5.96740160      2.20320309      1.68166630
  O      5.96211799      5.13574615      1.67219226
  O      5.96359627      8.11369972      1.67734054
  O      5.94812757     14.02476531      1.68683726
  O      5.94909666     11.08634224      1.68124250
  O      5.95184587     16.95587829      1.68416176
  O     12.29275178      2.20627060      1.69558125
  O     18.62216192      2.21234526      1.83596433
  O     12.28760799      5.17677628      1.75443837
  O     18.61714273      5.14164399      1.83532001
  O     12.29058921      8.10947802      1.75953449
  O     18.64175109      8.10914571      1.83643322
  O     12.28683894     14.01940393      1.76167874
  O     18.60860573     14.02037699      1.83554745
  O     12.28929058     11.08553686      1.69322581
  O     18.61843083     11.09219516      1.83412737
  O     12.28850163     16.99252823      1.76109155
  O     18.61767417     16.94930391      1.83486333
  O      3.46881887      2.20099712      1.68660069
  O      3.46888478      5.13235333      1.67914017
  O      3.46717683      8.11033272      1.67790904
  O      3.46131426     14.02110688      1.68053789
  O      3.46514194     11.08938553      1.67713527
  O      3.46745162     16.99770789      1.68458624
  O      9.78937784      2.21261337      1.68299114
  O     16.13625853      2.20174011      1.53099885
  O      9.79604239      5.13442435      1.67929712
  O     16.13708507      5.17972571      1.52616338
  O      9.79263895      8.11697402      1.68180903
  O     16.14265280      8.11502013      1.53130799
  O      9.78472629     14.02165564      1.68920069
  O     16.10927448     14.01829551      1.53076110
  O      9.79390846     11.04454957      1.68104478
  O     16.13933603     11.04106605      1.52696497
  O      9.78783607     16.99214565      1.69074088
  O     16.13084477     16.99735170      1.53338888
  O      1.42428852      0.72253068      0.31880897
  O      1.42605420      3.68166994      0.31978166
  O      1.42289251      6.62178291      0.31947832
  O      1.42836104     12.54327146      0.31080184
  O      1.42463342      9.60392661      0.31561987
  O      1.42871423     15.50413968      0.31396364
  O      7.87050533      0.72677381      0.38331024
  O     14.17737493      0.72436219      0.38987512
  O      7.87567260      3.68951271      0.37113724
  O     14.17832516      3.69462741      0.38808971
  O      7.87683617      6.63142289      0.37568192
  O     14.17902356      6.63284225      0.38458666
  O      7.87145675     12.53231039      0.38794086
  O     14.17915879     12.53544061      0.38559474
  O      7.87252336      9.59625892      0.38354869
  O     14.17611196      9.59088987      0.38601062
  O      7.86929217     15.50081711      0.38665677
  O     14.17559865     15.50784030      0.38793505
 Ti      1.21202878      0.71942337     -1.75752175
 Ti      1.21975963      3.67805472     -1.74110369
 Ti      1.22111716      6.63676035     -1.75533981
 Ti      1.22849042     12.55412208     -1.76041713
 Ti      1.22816291      9.59460746     -1.76515972
 Ti      1.22709747     15.51555674     -1.75892704
 Ti      7.81592619      0.70815691     -1.75287415
 Ti     14.38158119      0.71494161     -1.74474248
 Ti      7.80441092      3.67854378     -1.75257935
 Ti     14.37667801      3.68492053     -1.74500898
 Ti      7.81736303      6.63892084     -1.77625323
 Ti     14.39331679      6.64344134     -1.77549943
 Ti      7.83696388     12.55658465     -1.73913837
 Ti     14.41282109     12.55049553     -1.76073407
 Ti      7.83299588      9.59648136     -1.75768511
 Ti     14.39561168      9.59560913     -1.76648022
 Ti      7.81589198     15.51260085     -1.75790650
 Ti     14.40934091     15.51010728     -1.75630241
 Ti      4.52199207      2.19050397     -1.59161227
 Ti      4.52373824      5.15426536     -1.55230957
 Ti      4.52843688      8.11879900     -1.54955447
 Ti      4.52242957     14.02788300     -1.58772473
 Ti      4.53079138     11.07968169     -1.59126437
 Ti      4.51358792     17.00203362     -1.57907569
 Ti     11.08823270      2.18916184     -1.58733264
 Ti     17.65604673      2.19783817     -1.55248141
 Ti     11.08432363      5.15913192     -1.58883355
 Ti     17.66893902      5.16127300     -1.56595475
 Ti     11.08575948      8.12733818     -1.56890861
 Ti     17.68745030      8.12028738     -1.56060303
 Ti     11.11629116     14.03082356     -1.56258642
 Ti     17.68818458     14.03100085     -1.55812337
 Ti     11.09881007     11.08605676     -1.56207204
 Ti     17.69462097     11.07650451     -1.55489374
 Ti     11.10410228     16.98111534     -1.56242844
 Ti     17.67622831     16.99175535     -1.55176830
 Ti      1.30369970      2.19477698     -5.04772806
 Ti      1.31326858      5.12839073     -5.06048784
 Ti      1.30359635      8.09782824     -5.06656126
 Ti      1.29820627     14.00489532     -5.04681690
 Ti      1.30725828     11.07251972     -5.06745828
 Ti      1.18973891     16.97985252     -5.06112726
 Ti      7.88664190      2.17917051     -5.02767245
 Ti     14.46226053      2.18925818     -5.03217217
 Ti      7.90023798      5.11224747     -5.08518336
 Ti     14.48015323      5.11228181     -5.08395591
 Ti      7.89220098      8.10050586     -5.10119657
 Ti     14.47471673      8.10258285     -5.09878726
 Ti      7.90136460     14.00015542     -5.07435167
 Ti     14.48080143     14.05402072     -5.10816406
 Ti      7.90055760     11.08069982     -5.06893140
 Ti     14.49247153     11.08398312     -5.09432306
 Ti      7.79144382     16.97928002     -5.08718989
 Ti     14.46501303     16.99934982     -5.08067258
 Ti      4.50271475      0.67853286     -4.94553993
 Ti      4.59738169      3.66118026     -4.86025121
 Ti      4.58795066      6.64821928     -4.84268471
 Ti      4.60536881     12.54970432     -4.94445295
 Ti      4.55390161      9.59821891     -4.86271729
 Ti      4.49358231     15.51842562     -4.83720531
 Ti     11.07892972      0.67118858     -4.85049841
 Ti     17.67039963      0.74986841     -4.84503371
 Ti     11.18252030      3.65473495     -4.85592691
 Ti     17.76770073      3.67433079     -4.85125511
 Ti     11.15972404      6.63934225     -4.84267761
 Ti     17.67063633      6.63780116     -4.84905131
 Ti     11.17112152     12.54017942     -4.85760201
 Ti     17.76086193     12.53997692     -4.85494921
 Ti     11.16798488      9.57195295     -4.84076381
 Ti     17.76496603      9.55830793     -4.84740701
 Ti     11.15998408     15.52326962     -4.85603701
 Ti     17.68720513     15.52292102     -4.85539531
  O      4.50839834      0.71926992     -0.34010255
  O      4.51180337      3.65916205     -0.33721896
  O      4.51887021      6.64521145     -0.32875073
  O      4.51161413     12.54452216     -0.34718719
  O      4.51399177      9.60207771     -0.33527885
  O      4.50858683     15.51999133     -0.34330149
  O     11.09212688      0.71909360     -0.33393099
  O     17.67306178      0.71960864     -0.32624871
  O     11.08613898      3.66660444     -0.33859022
  O     17.67187301      3.67579707     -0.33129425
  O     11.08687446      6.64625509     -0.33282806
  O     17.67882754      6.64937818     -0.33545907
  O     11.09791677     12.54805853     -0.32934449
  O     17.68737917     12.54486418     -0.32962540
  O     11.08851999      9.59698890     -0.33086711
  O     17.68149603      9.59505575     -0.33078478
  O     11.10075215     15.51551655     -0.32912311
  O     17.68061647     15.52098124     -0.32755178
  O      2.52847458      2.19707998     -1.67679718
  O      2.52832193      5.15681189     -1.59992168
  O      2.53206906      8.11526864     -1.59912302
  O      2.53200488     14.03278665     -1.67630701
  O      2.53590867     11.07698556     -1.67230927
  O      2.52677125     17.00029427     -1.67740184
  O      9.11406052      2.19884860     -1.67864147
  O     15.66027481      2.20128230     -1.60682690
  O      9.11371744      5.15178411     -1.67959564
  O     15.68312353      5.15606203     -1.67034020
  O      9.11588751      8.11405535     -1.67463941
  O     15.69644398      8.11745240     -1.67484631
  O      9.12073918     14.04147867     -1.59814875
  O     15.69885201     14.03604208     -1.59316166
  O      9.11817370     11.07935990     -1.59758737
  O     15.69852913     11.07306338     -1.59923402
  O      9.11734449     16.99008436     -1.59691019
  O     15.68684695     16.99659036     -1.59685671
  O     -0.10072615      2.20175982     -1.60244580
  O     -0.09579378      5.15240906     -1.67670630
  O     -0.07514011      8.11249668     -1.67802483
  O     -0.07997509     14.03686181     -1.67843142
  O     -0.06251463     11.07923762     -1.67655237
  O     -0.08890155     16.99510939     -1.61109102
  O      6.53071700      2.19032508     -1.67172479
  O     13.06451304      2.19708269     -1.67898259
  O      6.52627547      5.15988572     -1.66892877
  O     13.06317794      5.16288646     -1.67592260
  O      6.53688575      8.12127107     -1.67584601
  O     13.06545909      8.11712948     -1.67680757
  O      6.53388118     14.03021317     -1.67708590
  O     13.11354058     14.03292781     -1.68743175
  O      6.54354296     11.07890128     -1.68159552
  O     13.07787612     11.07697217     -1.68239403
  O      6.51999909     16.98999569     -1.67025951
  O     13.08496487     16.98988190     -1.68200143
  O      4.53786602      0.70758103     -2.98954359
  O      4.54403684      3.67864201     -2.95059834
  O      4.54353763      6.63931244     -2.94590286
  O      4.54931403     12.55001857     -3.00414110
  O      4.54615327      9.59563606     -2.95107735
  O      4.54267882     15.51674688     -2.94921836
  O     11.04506561      0.70543087     -2.94757649
  O     17.62852426      0.71755324     -2.94208397
  O     11.12606359      3.67523189     -2.95208329
  O     17.64228330      3.67077609     -2.95163973
  O     11.04922967      6.64422526     -2.95127756
  O     17.63499851      6.63701585     -2.94918907
  O     11.04627626     12.55632668     -2.94631192
  O     17.63298724     12.55424168     -2.94694517
  O     11.04425365      9.59476593     -2.94705195
  O     17.71067856      9.59785626     -2.94637882
  O     11.11407381     15.51567955     -2.94738607
  O     17.62761844     15.51867240     -2.94770046
  O      1.16730567      0.72032719     -3.64614811
  O      1.24142946      3.67323106     -3.64559693
  O      1.25422791      6.63149921     -3.64836590
  O      1.24573761     12.55074781     -3.65661944
  O      1.24698371      9.58996293     -3.65482874
  O      1.24079256     15.51415465     -3.64850943
  O      7.84755798      0.65822843     -3.65317225
  O     14.42834009      0.70876926     -3.65114366
  O      7.75772666      3.67282632     -3.65992126
  O     14.41503644      3.67239459     -3.65396500
  O      7.84214381      6.64068554     -3.67133771
  O     14.41796467      6.63181367     -3.66446899
  O      7.92675950     12.55284276     -3.66165811
  O     14.51267915     12.55925359     -3.66583031
  O      7.92393007      9.59868971     -3.66747811
  O     14.42720808      9.60368487     -3.66342736
  O      7.85000805     15.50868029     -3.66170648
  O     14.51404225     15.51566398     -3.66595195
  O      5.75671982      2.16324301     -5.01435958
  O      5.75975303      5.15448081     -5.01530183
  O      5.76556015      8.14428322     -5.01539114
  O      5.75653567     14.03557632     -5.01636649
  O      5.78411909     11.08130282     -5.09072135
  O      5.76834411     16.97608362     -5.06744863
  O     12.34626893      2.16631666     -5.01136403
  O     18.92693223      2.16872457     -5.01182269
  O     12.35319463      5.15333855     -5.01211275
  O     18.92479343      5.15702773     -5.01288125
  O     12.38480073      8.10072512     -4.98445473
  O     18.93235633      8.05623231     -5.01259674
  O     12.35286853     14.03080392     -5.00936198
  O     18.92498483     14.03379252     -5.01470270
  O     12.37642473     11.06886562     -4.98555887
  O     18.93427013     11.04978872     -5.01564865
  O     12.37237753     16.98851532     -4.98794386
  O     18.92340113     17.02074082     -5.01352979
  O      3.22044698      2.16860736     -5.01483320
  O      3.22535877      5.15561492     -5.01428870
  O      3.22541749      8.14656077     -5.01556500
  O      3.21913862     14.03265332     -5.01720782
  O      3.22122825     11.05180552     -5.01514675
  O      3.19055941     16.98232112     -4.99293827
  O      9.80662525      2.17046481     -5.01076665
  O     16.39100653      2.17423529     -5.01482192
  O      9.80898175      5.15497252     -5.01507870
  O     16.39253663      5.14959923     -5.01645290
  O      9.91779221      8.13950322     -5.26757440
  O     16.39480123      8.14363750     -5.01513968
  O      9.93210408     14.03336686     -5.19536888
  O     16.50904620     14.03254601     -5.20296988
  O      9.94031990     11.07440600     -5.19705723
  O     16.52457610     11.06721736     -5.19701748
  O      9.89109481     16.97561302     -5.19278317
  O     16.48915131     16.99946280     -5.19553072
  O      1.25088733      0.71851802     -6.18411049
  O      1.24511498      3.66782190     -6.18930110
  O      1.25127594      6.62532430     -6.18717196
  O      1.25087407     12.55127117     -6.19242414
  O      1.24291261      9.58949157     -6.18831295
  O      1.24441005     15.50623474     -6.18118684
  O      7.75313584      0.71934483     -6.18526678
  O     14.41859379      0.72195880     -6.18694327
  O      7.83046563      3.64396538     -6.19141794
  O     14.34234357      3.65447390     -6.19246203
  O      7.75205245      6.62230557     -6.19408800
  O     14.42223371      6.61949175     -6.19834840
  O      7.75339785     12.55076102     -6.19457837
  O     14.33862573     12.56087697     -6.19719842
  O      7.82727799      9.60001139     -6.19093921
  O     14.41597948      9.59571130     -6.19876855
  O      7.75657171     15.49529594     -6.18846092
  O     14.33832771     15.52441085     -6.20041601
 Au      6.55059910      6.90688623      7.72466643
 Au     11.19034682      8.84122145      8.59768977
 Au      9.16840063      7.02404805      7.99624448
 Au     11.93484650     11.26043949      9.40364411
 Au     11.71254673      6.39822036      7.46342172
 Au      7.66434079      9.36626360      7.87387923
 Au      6.96365446     12.00485151      7.68307131
 Au      9.42264630     11.35709365      8.49436533
