439
Energy = -13269.73337489 au
 Ti      1.57101383      0.72702524      4.67634757
 Ti      1.58386334      3.68966522      4.69239870
 Ti      1.59343165      6.64478067      4.67342532
 Ti      1.59512092     12.54555965      4.67821091
 Ti      1.56822493      9.59757223      4.66957856
 Ti      1.60767782     15.49765845      4.67676194
 Ti      7.87982096      0.73893175      4.73204832
 Ti     14.19116304      0.72290368      4.73980936
 Ti      7.87622729      3.70262108      4.78164646
 Ti     14.20392360      3.66861437      4.74044802
 Ti      7.89677699      6.65277958      4.72082343
 Ti     14.18725291      6.62570641      4.77136370
 Ti      7.88558941     12.55576232      4.73671286
 Ti     14.21857327     12.54140314      4.73346773
 Ti      7.88406293      9.60234138      4.79401613
 Ti     14.18998616      9.59471273      4.74797347
 Ti      7.88134730     15.50890538      4.73371801
 Ti     14.23461209     15.49736806      4.73530254
 Ti      4.72082846      2.22559560      5.28969505
 Ti      4.71877476      5.18327052      5.26823280
 Ti      4.71909387      8.15685137      5.20433548
 Ti      4.72390362     14.04546764      5.31562388
 Ti      4.72142067     11.11182998      5.26128518
 Ti      4.72261048     17.00227559      5.30587968
 Ti     11.03005600      2.10650221      5.27571084
 Ti     17.32757441      2.18360268      5.15586585
 Ti     11.02869883      4.94773056      4.80087279
 Ti     17.33708396      5.13741699      5.12505001
 Ti     11.04206481      8.37064922      4.87196810
 Ti     17.32334518      8.11640010      5.15317290
 Ti     11.04708804     14.06018888      5.28423599
 Ti     17.33540604     14.02038426      5.15422507
 Ti     11.03397609     11.17501062      5.28964020
 Ti     17.32645533     11.06934830      5.13953691
 Ti     11.04208188     16.94456386      5.28188559
 Ti     17.32904428     16.96040283      5.13175071
  O      4.72869750      0.71982270      3.75566044
  O      4.71935549      3.69567717      3.75514011
  O      4.65463087      6.62028020      3.69910891
  O      4.72127882     12.53437543      3.75592395
  O      4.72243943      9.60357352      3.69320931
  O      4.66327579     15.50574628      3.75720198
  O     11.03124701      0.72127138      3.76647559
  O     17.25605593      0.72312549      3.65797334
  O     11.02333387      3.60965504      3.66522434
  O     17.25299644      3.69268939      3.62920170
  O     11.02744251      6.63239098      3.76082379
  O     17.25362888      6.63071706      3.62649372
  O     11.02221142     12.53067652      3.76086367
  O     17.18579379     12.52851959      3.65271128
  O     11.03348705      9.68220881      3.67439262
  O     17.25515129      9.59487596      3.65201412
  O     11.02345906     15.51327053      3.75892406
  O     17.18561623     15.50806997      3.65582997
  O      4.72940412      0.76674846      6.38395602
  O      4.80117636      3.70963335      6.37917395
  O      4.80890965      6.68425685      6.32089055
  O      4.80128438      9.59808970      6.32152776
  O      4.72930639     12.53835509      6.38144758
  O      4.73045550     15.51549485      6.38811667
  O     11.03300245      0.70782209      6.39805413
  O     17.41249833      0.71980968      6.23549818
  O     11.10785032      3.70538453      6.25029253
  O     17.40781889      3.69274945      6.22986821
  O     17.33258111      6.62132469      6.23666266
  O     11.03483008     12.60113428      6.39868558
  O     17.41177426     12.53527072      6.23407073
  O     11.03307420      9.60088358      6.24083370
  O     17.41048780      9.58979428      6.23394496
  O     11.03169060     15.50765672      6.39259738
  O     17.41211771     15.49846239      6.23520404
  O      2.76853811      2.21079104      5.12633327
  O      2.76678207      5.18105914      5.19750499
  O      2.77038636      8.12220849      5.12503822
  O      2.75890303     14.01736881      5.19701233
  O      2.76844972     11.03815154      5.12653119
  O      2.76817277     17.00276747      5.13005469
  O      9.07848824      2.20748783      5.12549593
  O     15.35920095      2.20474807      5.19610747
  O      9.13248171      5.19294864      5.04569680
  O     15.35570706      5.12633311      5.11457095
  O      9.12989749      8.10801768      5.04071080
  O     15.34236882      8.12187804      5.19609138
  O      9.07331877     14.03075719      5.12223058
  O     15.36024973     14.01734605      5.20607839
  O      9.06675075     11.10268598      5.18966815
  O     15.35744010     11.03418893      5.20021359
  O      9.07115070     16.99283679      5.12700607
  O     15.35984379     16.99899138      5.20273215
  O      0.39272603      2.21197093      4.96587240
  O      0.39232473      5.18576962      4.96574951
  O      0.38913699      8.10814460      4.96751903
  O      0.38720927     14.02038105      4.89125614
  O      0.39265187     11.09343038      4.96322034
  O      0.39528741     16.94370851      4.96317289
  O      6.68943422      2.20738336      5.11741353
  O     12.98588022      2.19276526      5.11465137
  O      6.68216061      5.19736267      4.96038378
  O     12.92927030      5.19415920      4.95748784
  O      6.68431187      8.11016632      4.95200229
  O     12.93579762      8.10233346      5.11322357
  O      6.68392246     14.02818354      5.12328964
  O     12.98802728     14.02115497      5.04713566
  O      6.68708011     11.09789596      5.11338580
  O     12.99143006     11.09732669      5.11944709
  O      6.68387202     16.99348937      5.12459322
  O     12.99053647     16.94616897      5.11719022
 Ti      1.58491041      2.20258755      1.49325214
 Ti      1.58233200      5.15900084      1.50653301
 Ti      1.59049903      8.11386127      1.47611449
 Ti      1.56369620     14.02095483      1.49912441
 Ti      1.57842821     11.07288723      1.50046191
 Ti      1.57586819     16.97009537      1.50221110
 Ti      7.87749043      2.22787231      1.52324449
 Ti     14.25925246      2.20641468      1.49402618
 Ti      7.87987920      5.16854422      1.51527763
 Ti     14.25300029      5.16788386      1.52706198
 Ti      7.88188472      8.10638929      1.51444127
 Ti     14.26341274      8.10524471      1.51181580
 Ti      7.88071226     14.01441972      1.49979502
 Ti     14.20142236     14.01897167      1.49405353
 Ti      7.88037979     11.04369599      1.54223986
 Ti     14.25370699     11.06200274      1.50474614
 Ti      7.88143536     16.98562635      1.50846888
 Ti     14.22808157     16.97581729      1.51517969
 Ti      4.72753108      0.72285388      1.92626866
 Ti      4.72088943      3.67667336      1.92225850
 Ti      4.71794764      6.62819568      1.88664109
 Ti      4.71919383     12.55332757      1.91751530
 Ti      4.72352311      9.60161640      1.87052107
 Ti      4.70477247     15.50045262      1.91996437
 Ti     11.04911372      0.72268439      1.91970754
 Ti     17.39777886      0.72099978      1.76210027
 Ti     11.07786765      3.65031079      1.59590361
 Ti     17.38045133      3.68147812      1.75770428
 Ti     11.05085551      6.62942686      1.83329129
 Ti     17.39529773      6.63430619      1.76908102
 Ti     11.03301636     12.54774520      1.92693675
 Ti     17.34828706     12.54878322      1.77253169
 Ti     11.09542603      9.61134415      1.62686411
 Ti     17.40470357      9.59380472      1.76774103
 Ti     11.04863832     15.50708265      1.90729034
 Ti     17.34027886     15.49743898      1.75813821
  O      1.65250027      0.71824689      2.89286464
  O      1.65749063      3.69206524      2.90992892
  O      1.65900080      6.62467771      2.88803058
  O      1.65846543     12.53727142      2.89148587
  O      1.65497069      9.60122941      2.88740850
  O      1.66003724     15.50456673      2.88931355
  O      7.87771980      0.72199087      2.95233721
  O     14.25925391      0.72104195      2.95677628
  O      7.88205328      3.69060620      2.96003388
  O     14.25981894      3.63684325      2.95298134
  O      7.88960038      6.62768606      2.90520094
  O     14.26267576      6.63194250      2.96267648
  O      7.88275864     12.53191898      2.95411640
  O     14.26146222     12.52630136      2.95181570
  O      7.88278607      9.60676339      2.96341049
  O     14.25650106      9.59961892      2.96116654
  O      7.87867459     15.50886324      2.95744507
  O     14.26311832     15.50810206      2.95374150
  O      5.96707267      2.20364689      1.68249735
  O      5.96638300      5.14025403      1.67630270
  O      5.97088000      8.11084430      1.67673819
  O      5.96113914     14.02522683      1.68523549
  O      5.96308053     11.08985968      1.67570214
  O      5.95747434     16.95760620      1.68454601
  O     12.29227995      2.20208084      1.69067495
  O     18.64557690      2.20584016      1.83281761
  O     12.29163817      5.13724172      1.75625387
  O     18.63633106      5.14546244      1.82266422
  O     12.29382843      8.10978288      1.75751471
  O     18.65206800      8.11371863      1.83182468
  O     12.28775631     14.01969512      1.76211169
  O     18.61138264     14.02041881      1.83563280
  O     12.29118696     11.08629185      1.69336674
  O     18.62362245     11.09215945      1.83347982
  O     12.28920152     16.99128438      1.76125271
  O     18.62169484     16.94853572      1.83496751
  O      3.47257759      2.20188922      1.68814763
  O      3.47376384      5.13203829      1.67869250
  O      3.47126041      8.11417629      1.67890897
  O      3.46628057     14.01942241      1.68246782
  O      3.47104782     11.09090916      1.68058628
  O      3.47011505     16.99546767      1.68446933
  O      9.78903265      2.20731259      1.68238756
  O     16.14538370      2.20100500      1.52804505
  O      9.80633842      5.14206320      1.67996402
  O     16.14171505      5.17175526      1.53024794
  O      9.80912668      8.11324315      1.68333079
  O     16.14648260      8.11487043      1.52917555
  O      9.78752638     14.02167758      1.69085639
  O     16.11645244     14.01893438      1.53052140
  O      9.80091746     11.04442680      1.68096804
  O     16.14160795     11.04001970      1.52713478
  O      9.79005522     16.99184843      1.69086710
  O     16.13663890     16.99730886      1.53227938
  O      1.42596680      0.71966214      0.31574318
  O      1.42833999      3.68242105      0.31644311
  O      1.42548397      6.62415266      0.31790971
  O      1.42966990     12.54385146      0.31000184
  O      1.42612246      9.60516066      0.31392256
  O      1.42984690     15.50260214      0.31284547
  O      7.87068694      0.73749829      0.38354807
  O     14.17818940      0.71885553      0.38751059
  O      7.87758251      3.68826538      0.35991865
  O     14.18070918      3.69670817      0.38747362
  O      7.87903363      6.62972665      0.34722386
  O     14.17891730      6.62534426      0.38962060
  O      7.87403240     12.53159296      0.38662456
  O     14.18024331     12.53437638      0.38580453
  O      7.87564856      9.59384085      0.37688152
  O     14.17671885      9.58570781      0.38738463
  O      7.87123488     15.50578442      0.38520730
  O     14.17656879     15.50702537      0.38830693
 Ti      1.21202878      0.71942337     -1.75752175
 Ti      1.21975963      3.67805472     -1.74110369
 Ti      1.22111716      6.63676035     -1.75533981
 Ti      1.22849042     12.55412208     -1.76041713
 Ti      1.22816291      9.59460746     -1.76515972
 Ti      1.22709747     15.51555674     -1.75892704
 Ti      7.81592619      0.70815691     -1.75287415
 Ti     14.38158119      0.71494161     -1.74474248
 Ti      7.80441092      3.67854378     -1.75257935
 Ti     14.37667801      3.68492053     -1.74500898
 Ti      7.81736303      6.63892084     -1.77625323
 Ti     14.39331679      6.64344134     -1.77549943
 Ti      7.83696388     12.55658465     -1.73913837
 Ti     14.41282109     12.55049553     -1.76073407
 Ti      7.83299588      9.59648136     -1.75768511
 Ti     14.39561168      9.59560913     -1.76648022
 Ti      7.81589198     15.51260085     -1.75790650
 Ti     14.40934091     15.51010728     -1.75630241
 Ti      4.52199207      2.19050397     -1.59161227
 Ti      4.52373824      5.15426536     -1.55230957
 Ti      4.52843688      8.11879900     -1.54955447
 Ti      4.52242957     14.02788300     -1.58772473
 Ti      4.53079138     11.07968169     -1.59126437
 Ti      4.51358792     17.00203362     -1.57907569
 Ti     11.08823270      2.18916184     -1.58733264
 Ti     17.65604673      2.19783817     -1.55248141
 Ti     11.08432363      5.15913192     -1.58883355
 Ti     17.66893902      5.16127300     -1.56595475
 Ti     11.08575948      8.12733818     -1.56890861
 Ti     17.68745030      8.12028738     -1.56060303
 Ti     11.11629116     14.03082356     -1.56258642
 Ti     17.68818458     14.03100085     -1.55812337
 Ti     11.09881007     11.08605676     -1.56207204
 Ti     17.69462097     11.07650451     -1.55489374
 Ti     11.10410228     16.98111534     -1.56242844
 Ti     17.67622831     16.99175535     -1.55176830
 Ti      1.30369970      2.19477698     -5.04772806
 Ti      1.31326858      5.12839073     -5.06048784
 Ti      1.30359635      8.09782824     -5.06656126
 Ti      1.29820627     14.00489532     -5.04681690
 Ti      1.30725828     11.07251972     -5.06745828
 Ti      1.18973891     16.97985252     -5.06112726
 Ti      7.88664190      2.17917051     -5.02767245
 Ti     14.46226053      2.18925818     -5.03217217
 Ti      7.90023798      5.11224747     -5.08518336
 Ti     14.48015323      5.11228181     -5.08395591
 Ti      7.89220098      8.10050586     -5.10119657
 Ti     14.47471673      8.10258285     -5.09878726
 Ti      7.90136460     14.00015542     -5.07435167
 Ti     14.48080143     14.05402072     -5.10816406
 Ti      7.90055760     11.08069982     -5.06893140
 Ti     14.49247153     11.08398312     -5.09432306
 Ti      7.79144382     16.97928002     -5.08718989
 Ti     14.46501303     16.99934982     -5.08067258
 Ti      4.50271475      0.67853286     -4.94553993
 Ti      4.59738169      3.66118026     -4.86025121
 Ti      4.58795066      6.64821928     -4.84268471
 Ti      4.60536881     12.54970432     -4.94445295
 Ti      4.55390161      9.59821891     -4.86271729
 Ti      4.49358231     15.51842562     -4.83720531
 Ti     11.07892972      0.67118858     -4.85049841
 Ti     17.67039963      0.74986841     -4.84503371
 Ti     11.18252030      3.65473495     -4.85592691
 Ti     17.76770073      3.67433079     -4.85125511
 Ti     11.15972404      6.63934225     -4.84267761
 Ti     17.67063633      6.63780116     -4.84905131
 Ti     11.17112152     12.54017942     -4.85760201
 Ti     17.76086193     12.53997692     -4.85494921
 Ti     11.16798488      9.57195295     -4.84076381
 Ti     17.76496603      9.55830793     -4.84740701
 Ti     11.15998408     15.52326962     -4.85603701
 Ti     17.68720513     15.52292102     -4.85539531
  O      4.50839834      0.71926992     -0.34010255
  O      4.51180337      3.65916205     -0.33721896
  O      4.51887021      6.64521145     -0.32875073
  O      4.51161413     12.54452216     -0.34718719
  O      4.51399177      9.60207771     -0.33527885
  O      4.50858683     15.51999133     -0.34330149
  O     11.09212688      0.71909360     -0.33393099
  O     17.67306178      0.71960864     -0.32624871
  O     11.08613898      3.66660444     -0.33859022
  O     17.67187301      3.67579707     -0.33129425
  O     11.08687446      6.64625509     -0.33282806
  O     17.67882754      6.64937818     -0.33545907
  O     11.09791677     12.54805853     -0.32934449
  O     17.68737917     12.54486418     -0.32962540
  O     11.08851999      9.59698890     -0.33086711
  O     17.68149603      9.59505575     -0.33078478
  O     11.10075215     15.51551655     -0.32912311
  O     17.68061647     15.52098124     -0.32755178
  O      2.52847458      2.19707998     -1.67679718
  O      2.52832193      5.15681189     -1.59992168
  O      2.53206906      8.11526864     -1.59912302
  O      2.53200488     14.03278665     -1.67630701
  O      2.53590867     11.07698556     -1.67230927
  O      2.52677125     17.00029427     -1.67740184
  O      9.11406052      2.19884860     -1.67864147
  O     15.66027481      2.20128230     -1.60682690
  O      9.11371744      5.15178411     -1.67959564
  O     15.68312353      5.15606203     -1.67034020
  O      9.11588751      8.11405535     -1.67463941
  O     15.69644398      8.11745240     -1.67484631
  O      9.12073918     14.04147867     -1.59814875
  O     15.69885201     14.03604208     -1.59316166
  O      9.11817370     11.07935990     -1.59758737
  O     15.69852913     11.07306338     -1.59923402
  O      9.11734449     16.99008436     -1.59691019
  O     15.68684695     16.99659036     -1.59685671
  O     -0.10072615      2.20175982     -1.60244580
  O     -0.09579378      5.15240906     -1.67670630
  O     -0.07514011      8.11249668     -1.67802483
  O     -0.07997509     14.03686181     -1.67843142
  O     -0.06251463     11.07923762     -1.67655237
  O     -0.08890155     16.99510939     -1.61109102
  O      6.53071700      2.19032508     -1.67172479
  O     13.06451304      2.19708269     -1.67898259
  O      6.52627547      5.15988572     -1.66892877
  O     13.06317794      5.16288646     -1.67592260
  O      6.53688575      8.12127107     -1.67584601
  O     13.06545909      8.11712948     -1.67680757
  O      6.53388118     14.03021317     -1.67708590
  O     13.11354058     14.03292781     -1.68743175
  O      6.54354296     11.07890128     -1.68159552
  O     13.07787612     11.07697217     -1.68239403
  O      6.51999909     16.98999569     -1.67025951
  O     13.08496487     16.98988190     -1.68200143
  O      4.53786602      0.70758103     -2.98954359
  O      4.54403684      3.67864201     -2.95059834
  O      4.54353763      6.63931244     -2.94590286
  O      4.54931403     12.55001857     -3.00414110
  O      4.54615327      9.59563606     -2.95107735
  O      4.54267882     15.51674688     -2.94921836
  O     11.04506561      0.70543087     -2.94757649
  O     17.62852426      0.71755324     -2.94208397
  O     11.12606359      3.67523189     -2.95208329
  O     17.64228330      3.67077609     -2.95163973
  O     11.04922967      6.64422526     -2.95127756
  O     17.63499851      6.63701585     -2.94918907
  O     11.04627626     12.55632668     -2.94631192
  O     17.63298724     12.55424168     -2.94694517
  O     11.04425365      9.59476593     -2.94705195
  O     17.71067856      9.59785626     -2.94637882
  O     11.11407381     15.51567955     -2.94738607
  O     17.62761844     15.51867240     -2.94770046
  O      1.16730567      0.72032719     -3.64614811
  O      1.24142946      3.67323106     -3.64559693
  O      1.25422791      6.63149921     -3.64836590
  O      1.24573761     12.55074781     -3.65661944
  O      1.24698371      9.58996293     -3.65482874
  O      1.24079256     15.51415465     -3.64850943
  O      7.84755798      0.65822843     -3.65317225
  O     14.42834009      0.70876926     -3.65114366
  O      7.75772666      3.67282632     -3.65992126
  O     14.41503644      3.67239459     -3.65396500
  O      7.84214381      6.64068554     -3.67133771
  O     14.41796467      6.63181367     -3.66446899
  O      7.92675950     12.55284276     -3.66165811
  O     14.51267915     12.55925359     -3.66583031
  O      7.92393007      9.59868971     -3.66747811
  O     14.42720808      9.60368487     -3.66342736
  O      7.85000805     15.50868029     -3.66170648
  O     14.51404225     15.51566398     -3.66595195
  O      5.75671982      2.16324301     -5.01435958
  O      5.75975303      5.15448081     -5.01530183
  O      5.76556015      8.14428322     -5.01539114
  O      5.75653567     14.03557632     -5.01636649
  O      5.78411909     11.08130282     -5.09072135
  O      5.76834411     16.97608362     -5.06744863
  O     12.34626893      2.16631666     -5.01136403
  O     18.92693223      2.16872457     -5.01182269
  O     12.35319463      5.15333855     -5.01211275
  O     18.92479343      5.15702773     -5.01288125
  O     12.38480073      8.10072512     -4.98445473
  O     18.93235633      8.05623231     -5.01259674
  O     12.35286853     14.03080392     -5.00936198
  O     18.92498483     14.03379252     -5.01470270
  O     12.37642473     11.06886562     -4.98555887
  O     18.93427013     11.04978872     -5.01564865
  O     12.37237753     16.98851532     -4.98794386
  O     18.92340113     17.02074082     -5.01352979
  O      3.22044698      2.16860736     -5.01483320
  O      3.22535877      5.15561492     -5.01428870
  O      3.22541749      8.14656077     -5.01556500
  O      3.21913862     14.03265332     -5.01720782
  O      3.22122825     11.05180552     -5.01514675
  O      3.19055941     16.98232112     -4.99293827
  O      9.80662525      2.17046481     -5.01076665
  O     16.39100653      2.17423529     -5.01482192
  O      9.80898175      5.15497252     -5.01507870
  O     16.39253663      5.14959923     -5.01645290
  O      9.91779221      8.13950322     -5.26757440
  O     16.39480123      8.14363750     -5.01513968
  O      9.93210408     14.03336686     -5.19536888
  O     16.50904620     14.03254601     -5.20296988
  O      9.94031990     11.07440600     -5.19705723
  O     16.52457610     11.06721736     -5.19701748
  O      9.89109481     16.97561302     -5.19278317
  O     16.48915131     16.99946280     -5.19553072
  O      1.25088733      0.71851802     -6.18411049
  O      1.24511498      3.66782190     -6.18930110
  O      1.25127594      6.62532430     -6.18717196
  O      1.25087407     12.55127117     -6.19242414
  O      1.24291261      9.58949157     -6.18831295
  O      1.24441005     15.50623474     -6.18118684
  O      7.75313584      0.71934483     -6.18526678
  O     14.41859379      0.72195880     -6.18694327
  O      7.83046563      3.64396538     -6.19141794
  O     14.34234357      3.65447390     -6.19246203
  O      7.75205245      6.62230557     -6.19408800
  O     14.42223371      6.61949175     -6.19834840
  O      7.75339785     12.55076102     -6.19457837
  O     14.33862573     12.56087697     -6.19719842
  O      7.82727799      9.60001139     -6.19093921
  O     14.41597948      9.59571130     -6.19876855
  O      7.75657171     15.49529594     -6.18846092
  O     14.33832771     15.52441085     -6.20041601
 Au      9.62558578      8.16239478      7.97707939
 Au      9.61860284      5.38365331      7.98786800
 Au     14.69722438      6.14182190      7.78933068
 Au      7.33751651      3.97823527      7.69692066
 Au     12.90622118      4.19880495      7.67665417
 Au      7.25893115      9.42928769      7.68062661
 Au      7.17682964      6.71364856      7.73947276
 Au     11.95323083      6.81188945      7.79273035
