439
Energy = -13263.90737911 au
 Ti      0.05581577      2.43908806      2.36094641
 Ti      0.93883767      4.98267527      4.20811698
 Ti      0.31744463      7.69736908      1.93437972
 Ti      1.56405194     13.69209555      2.17907769
 Ti      1.09633428     10.61125104      2.30861843
 Ti      1.62674704     17.06407912      1.99871168
 Ti      6.88147494      1.48248780      4.81390012
 Ti     13.79835852      0.07160481      4.56406520
 Ti      6.22519931      4.25063919      4.06736749
 Ti     12.43858964      2.98198118      5.42981174
 Ti      6.53463012      7.17446617      3.89967677
 Ti     12.71477162      5.93387292      5.32034139
 Ti      7.40825550     12.93771233      3.99511426
 Ti     13.61087429     11.73300433      5.51985669
 Ti      7.00167663     10.03666456      3.92096569
 Ti     13.16660561      8.83735417      5.39627650
 Ti      7.85968994     15.88681414      4.08199800
 Ti     13.99642542     14.59051113      5.61951628
 Ti      3.24257318      2.73329925      4.16770170
 Ti      3.47810660      6.06361769      4.02760049
 Ti      3.63808165      9.00872515      3.93235170
 Ti      4.49487879     14.78768941      3.84033243
 Ti      4.07206417     11.91335733      3.83631398
 Ti      4.49546453     17.57287622      3.49817434
 Ti      9.12793505      2.38617538      5.99428725
 Ti     15.84848996      1.17933087      6.30409580
 Ti      9.32965050      4.88178391      4.57386152
 Ti     15.61339279      4.10030025      6.33193394
 Ti      9.86391185      8.10506404      4.72292643
 Ti     15.83566217      6.99885915      6.70202002
 Ti     10.56968991     13.70426707      5.22367816
 Ti     16.84393213     12.75715420      6.66544812
 Ti     10.17922984     10.86096449      5.13423868
 Ti     16.31153660      9.87049727      6.79009523
 Ti     11.18935257     16.33109686      4.88379096
 Ti     16.86282294     15.68739909      6.60873063
  O      3.77158193      1.56678004      2.55587357
  O      4.09668607      4.48318920      2.79092334
  O      4.25090300      7.33675885      2.63550343
  O      4.96779614     13.31133269      2.39483832
  O      4.57388893     10.31569206      2.48058611
  O      5.03981561     16.38891265      2.33227569
  O      8.89944338      1.42189093      4.32225038
  O     15.60906881     -0.32956727      4.65134423
  O      9.70597371      3.70359333      3.34301545
  O     15.99367072      2.51603656      4.96401503
  O     10.08643156      6.44128863      3.66615719
  O     16.22990038      5.50614086      5.04796144
  O     10.86647330     12.27052011      3.81608758
  O     17.09523120     11.18372899      5.36106762
  O     10.41062286      9.37572264      3.60684071
  O     17.02388624      8.27587041      5.83316446
  O     11.27042324     14.95309404      3.76822801
  O     17.32895609     14.41668761      5.20452396
  O      2.92367385      1.57522176      5.27881185
  O      2.67450304      4.62981875      4.96267756
  O      3.22713683      7.57773644      4.97553922
  O      3.46749977     10.54069725      4.87381899
  O      3.95141562     13.37280305      4.88186544
  O      4.32685112     16.30066168      4.80564720
  O      7.64917652      1.49216490      6.55416074
  O     17.01729315     -0.15539508      6.87502057
  O      9.22777859      4.16817316      6.39208181
  O     15.84809299      2.58912158      7.43155823
  O     15.92720084      5.42789300      7.58849379
  O     10.15956722     12.28245776      6.32550936
  O     16.77717190     11.33000663      7.83150805
  O      9.77462672      9.36608178      6.07262880
  O     15.76498620      8.43023046      7.91628025
  O     10.71504978     15.26873818      6.24115282
  O     17.32661373     14.24530643      7.67747504
  O      1.42311534      3.08052488      3.37241638
  O      1.72072983      6.21454141      3.12338954
  O      2.04942336      9.12607456      2.80764473
  O      2.76891325     14.64705246      2.97143722
  O      2.43749545     11.96973700      2.72139707
  O      2.52160376     17.32787444      3.43400897
  O      7.64546792      3.31765093      4.79031285
  O     13.86210174      1.26384997      5.92213943
  O      7.65522219      5.74776710      4.40261487
  O     13.78023699      4.26003311      6.14812448
  O      7.96828860      8.34806634      4.39827811
  O     14.11467208      7.17194078      6.06535553
  O      8.75169660     14.09876540      4.72210818
  O     15.05989444     12.91133132      6.24270566
  O      8.36789569     11.23966064      4.55581598
  O     14.64919727     10.06096875      5.99556571
  O      9.46703323     16.86392046      4.40093584
  O     15.13186332     15.51638829      6.80251621
  O     -0.62822902      4.50778919      2.97275207
  O     -0.79364586      7.00330667      3.20849109
  O     -0.31468597      9.61468720      3.26787135
  O     -0.31762108     16.52775334      1.85069703
  O      0.40560276     13.25058295      3.68520064
  O      0.95047610     18.80913408      1.60019133
  O      5.28007359      2.67775033      4.65287824
  O     11.02343320      2.04455668      6.07804687
  O      5.29639423      5.84541883      4.64623280
  O     11.44095683      4.63442008      5.35246540
  O      5.60503439      8.81062474      4.39612205
  O     11.73950477      7.55931027      5.43817767
  O      6.41604406     14.55367548      4.24499160
  O     12.60660332     13.31897683      5.76203287
  O      6.00273710     11.65312097      4.31206777
  O     12.20719898     10.46095575      5.53190786
  O      6.69787942     17.38480414      4.55613492
  O     13.08441166     16.31173208      5.42997522
 Ti      1.20541108      3.25090181     -0.50184295
 Ti      2.40104479      6.04379762     -1.18952165
 Ti      2.23690094      9.12310632     -0.69051962
 Ti      2.80955525     15.67813448     -0.57303368
 Ti      2.70645661     12.27094700     -0.80234418
 Ti      1.74311055     18.31907134     -2.00554658
 Ti      6.75249578      1.66945382      1.08103917
 Ti     12.86997120      1.48566532      2.04223819
 Ti      7.26794252      5.04911919      0.74740832
 Ti     13.25443396      4.43428261      2.16604670
 Ti      7.71386027      8.18633471      0.69877683
 Ti     13.82465811      7.37161243      2.17060470
 Ti      8.51072285     14.24330224      0.95338875
 Ti     14.55411501     13.30771042      2.34310776
 Ti      8.11961307     11.25292819      0.78418700
 Ti     14.21984905     10.32374776      2.28090779
 Ti      9.05398045     17.19071411      0.65766953
 Ti     14.25929760     16.30869657      0.81204431
 Ti      3.71890501      1.45382743      0.72480369
 Ti      4.15987422      4.34108331      1.02620337
 Ti      4.72267162      7.27362719      0.89521906
 Ti      5.37537643     13.41243882      0.64833295
 Ti      5.00780909     10.32058683      0.75515732
 Ti      5.68891382     16.43931317      0.14236457
 Ti     10.09847691      0.72275864      3.09982844
 Ti     16.37178914     -0.33674517      2.79412735
 Ti      9.74398770      3.28483610      1.43199096
 Ti     15.96595641      2.52520923      3.01634638
 Ti     10.48709367      6.32682296      1.68171554
 Ti     16.56549435      5.73567592      3.19447319
 Ti     11.25229359     12.24916533      1.99301983
 Ti     17.20722062     10.94749989      3.50536567
 Ti     10.88744820      9.31091740      1.57879993
 Ti     18.71576983      7.86161134      5.05125449
 Ti     11.65608519     15.23671794      1.68442090
 Ti     17.56126621     14.25656800      3.35329314
  O     -0.15552568      3.38934864      0.64829491
  O      0.38294233      6.54052466      0.63334395
  O      0.87257347      9.35768852      0.62839875
  O      1.68249582     15.20473895      0.88386296
  O      1.35483873     12.29059694      0.56105792
  O      0.85494283     16.78032198     -0.95369070
  O      6.30922156      1.33656007      2.72220724
  O     11.91970026      0.39044446      3.84724828
  O      6.69542402      4.24951424      2.33796591
  O     12.91840476      2.99224476      3.67078135
  O      6.77525514      7.08405850      2.07425225
  O     13.16637592      5.89389757      3.59462562
  O      7.80349563     12.82519105      2.24636861
  O     13.95499036     11.72957633      3.75145237
  O      7.32960229      9.93260309      2.15876905
  O     13.54658389      8.75053916      3.67486978
  O      8.19251745     15.66620632      2.38228925
  O     14.49823252     14.32928891      3.97957415
  O      5.12592483      2.84329470      0.64375406
  O      5.42876572      5.59555032      0.32910060
  O      5.83223361      8.66698472      0.31657437
  O      6.68516822     14.71963197      0.48202665
  O      6.24535373     11.66659571      0.40825006
  O      7.23574815     17.48807631      0.71627277
  O     11.08082016      1.97802423      1.97539374
  O     17.48700835      1.10747288      2.95647037
  O     11.47644204      4.71479115      1.68807336
  O     17.79717704      3.36991229      3.75970563
  O     11.84260080      7.64913075      1.83969576
  O     19.07523383      5.98977858      5.45313020
  O     12.68998417     13.45849008      1.93277715
  O     19.07010779     11.81937576      3.60308773
  O     12.23676872     10.55496352      1.98996941
  O     19.77944961      8.82105424      5.83508872
  O     13.16831324     15.98449553      2.32516884
  O     19.13178443     15.68423181      2.95445430
  O      2.68782429      3.14506542      0.56524695
  O      3.08571669      6.06126594      0.47950267
  O      3.53387240      8.90019436      0.48265525
  O      4.32312491     15.02735568      0.24822712
  O      3.92588562     11.96427031      0.40730116
  O      2.98745844     17.40885366      0.65220698
  O      8.74268035      1.65274903      1.67979384
  O     14.66703296      1.02264098      2.87967645
  O      9.04005865      5.13882558      1.36337722
  O     15.30354744      4.19564408      2.79873364
  O      9.41000912      8.02006917      1.45837937
  O     15.50943620      7.08384060      2.86791212
  O     10.24848566     13.85208626      1.59867448
  O     16.54504438     12.75717869      2.96407746
  O      9.84213476     10.95418760      1.51503635
  O     15.84595732      9.92723966      3.04001669
  O     10.48392261     16.93504756      1.91398038
  O     16.47218763     15.59796022      2.95641254
  O      0.55403305      1.89204975     -1.42960710
  O      1.11144111      4.81437352     -1.44283168
  O      1.58806369      7.67056395     -1.51805012
  O      2.59690894     13.95560348     -1.36616691
  O      2.05015800     10.71597160     -1.52725309
  O      3.08347264     16.92235522     -1.82372504
  O      5.27847021      0.63291486      0.00198167
  O     13.00104351      0.16249563      0.87638550
  O      7.47522488      3.46268225      0.00880616
  O     13.45563341      2.92746287      1.05036775
  O      7.63746219      6.76662751     -0.38634531
  O     13.79269036      5.83502934      1.05685279
  O      8.50648508     12.75669001     -0.23725762
  O     14.65620341     11.73015918      1.20619022
  O      8.10394098      9.76986211     -0.32045756
  O     14.18150336      8.81507115      1.10257398
  O      9.06012118     15.56770917     -0.22879142
  O     14.97380563     14.55792998      1.03833466
 Ti      0.39048783      2.14302328     -4.04388742
 Ti      0.88773065      5.05876723     -3.97306697
 Ti      1.38538572      7.97508705     -3.93354831
 Ti      2.38018426     13.80732855     -3.83066558
 Ti      1.88743206     10.88969291     -3.88851829
 Ti      2.87229377     16.72708444     -3.77632238
 Ti      6.74504203      1.03113266     -2.63146049
 Ti     13.06504804     -0.05652380     -1.22346008
 Ti      7.22915447      3.96137954     -2.58028242
 Ti     13.55557743      2.87220842     -1.17142780
 Ti      7.74026214      6.87724194     -2.54748071
 Ti     14.07137795      5.78550180     -1.14453203
 Ti      8.73788710     12.70851344     -2.40077040
 Ti     15.07190580     11.60592187     -1.01986471
 Ti      8.24447511      9.79065224     -2.47289435
 Ti     14.56388739      8.69564479     -1.08221421
 Ti      9.21446765     15.62583811     -2.37050950
 Ti     15.56107491     14.52428233     -0.96312587
 Ti      3.78682127      3.04453080     -3.14964781
 Ti      4.27427922      5.96674771     -3.05765668
 Ti      4.77249997      8.88856632     -3.00072327
 Ti      5.76009243     14.71427352     -2.93316868
 Ti      5.27733507     11.80636444     -2.98779038
 Ti      6.24562515     17.64793773     -2.87319220
 Ti     10.10685729      1.94869462     -1.74543130
 Ti     16.42356066      0.86303104     -0.31083586
 Ti     10.59860538      4.87722987     -1.69439303
 Ti     16.93294587      3.78210416     -0.26802770
 Ti     11.09063694      7.80352656     -1.62131720
 Ti     17.44298991      6.69622654     -0.20571179
 Ti     12.10298561     13.61843589     -1.50261032
 Ti     18.42867767     12.52315865     -0.09698206
 Ti     11.59505822     10.71829473     -1.55872047
 Ti     17.94157399      9.60948829     -0.14551487
 Ti     12.58312823     16.52898206     -1.45207043
 Ti     18.90946751     15.44409377     -0.04015111
 Ti      1.42618338      3.52211608     -7.21184689
 Ti      1.92724494      6.41235747     -7.16958587
 Ti      2.41433102      9.34124491     -7.12425261
 Ti      3.38983426     15.16591850     -7.00002938
 Ti      2.91402601     12.27318364     -7.07092535
 Ti      3.78448887     18.11656616     -6.98370834
 Ti      7.75655592      2.40972152     -5.78891484
 Ti     14.08939736      1.32342964     -4.39106949
 Ti      8.27094561      5.29794514     -5.78951943
 Ti     14.60502608      4.20113065     -4.38534397
 Ti      8.76486305      8.24493281     -5.75320906
 Ti     15.10153558      7.14972012     -4.34728796
 Ti      9.75162627     14.05999749     -5.61907981
 Ti     16.10169189     13.01569149     -4.24826789
 Ti      9.26292494     11.18211911     -5.66638786
 Ti     15.61477305     10.08602127     -4.28559827
 Ti     10.14526270     17.01502272     -5.60155579
 Ti     16.57171453     15.92244445     -4.17188419
 Ti      4.23120965      1.49593506     -6.45715884
 Ti      4.80146525      4.42212046     -6.30009494
 Ti      5.28667835      7.36875165     -6.23130174
 Ti      6.30911375     13.18190104     -6.22101381
 Ti      5.75003250     10.28228517     -6.20515106
 Ti      6.67361779     16.12917433     -6.08676989
 Ti     10.54049698      0.39417652     -4.96226364
 Ti     16.89791028     -0.62695499     -3.55007298
 Ti     11.13883353      3.31810390     -4.89189700
 Ti     17.48050990      2.23975908     -3.48288302
 Ti     11.61169518      6.26448695     -4.83021443
 Ti     17.88070591      5.17748330     -3.44820525
 Ti     12.60971191     12.07958724     -4.73638943
 Ti     18.95290748     10.98092744     -3.32873096
 Ti     12.10820195      9.15422552     -4.77391661
 Ti     18.45810857      8.04093677     -3.37403637
 Ti     13.09603534     15.02231777     -4.68366188
 Ti     19.37944932     13.93389918     -3.29130099
  O      3.26161611      1.61925283     -1.95644486
  O      3.75445559      4.51699690     -1.90010430
  O      4.25732553      7.45973613     -1.83669872
  O      5.23787914     13.27637699     -1.75030918
  O      4.74702737     10.37542292     -1.79101326
  O      5.73024458     16.21028483     -1.69372229
  O      9.59827837      0.52168528     -0.54663051
  O     15.93204445     -0.57470743      0.86407631
  O     10.08495387      3.42836821     -0.49952402
  O     16.42486916      2.33972314      0.91198456
  O     10.58123879      6.36580533     -0.44022673
  O     16.92824541      5.26995868      0.96280182
  O     11.57515022     12.18225358     -0.32847849
  O     17.91820477     11.08063707      1.07620121
  O     11.07438881      9.27451400     -0.38496791
  O     17.42095871      8.17356173      1.02083846
  O     12.07260503     15.10721951     -0.27436488
  O     18.40746858     14.01577323      1.13023316
  O      1.88696426      3.38177705     -3.65780135
  O      2.36391208      6.30102424     -3.52958487
  O      2.86062072      9.21697492     -3.47487461
  O      3.86365825     15.04929348     -3.44401149
  O      3.37373519     12.13477306     -3.49235741
  O      4.35363408     17.97562937     -3.39290320
  O      8.22744783      2.28567087     -2.25538624
  O     14.51443636      1.19812878     -0.78940119
  O      8.71967205      5.19682833     -2.20335947
  O     15.04263159      4.10609579     -0.79350653
  O      9.21461211      8.11687829     -2.14485569
  O     15.55017634      7.02324580     -0.74188425
  O     10.19127087     13.96094886     -1.96265114
  O     16.52190248     12.85911003     -0.55528569
  O      9.69479924     11.04121587     -2.01584667
  O     16.02886065      9.93803431     -0.61449859
  O     10.67936797     16.86838654     -1.90921086
  O     17.00475360     15.77966644     -0.50828619
  O     -0.65917923      3.82603575     -4.14568867
  O     -0.14662909      6.73272116     -4.16418661
  O      0.36707840      9.64742263     -4.10791038
  O      1.35029625     15.48868877     -4.00294237
  O      0.87357162     12.57007245     -4.05050009
  O      1.82058306     18.40776111     -3.88593758
  O      5.73762537      2.70803730     -2.79960580
  O     12.03023792      1.62538397     -1.41343190
  O      6.22787652      5.63633615     -2.74449101
  O     12.52279690      4.54946613     -1.35746438
  O      6.73332545      8.55388895     -2.69580198
  O     13.01775065      7.46147638     -1.30478699
  O      7.71591154     14.37963013     -2.59153467
  O     14.05265998     13.28528926     -1.19867088
  O      7.23409379     11.46842009     -2.64688257
  O     13.52439797     10.37723148     -1.25444047
  O      8.19458490     17.29993666     -2.53467139
  O     14.51701416     16.20523136     -1.14635512
  O      3.85288321      1.55443280     -4.53844880
  O      4.34589395      4.48310182     -4.44573232
  O      4.83805305      7.40201385     -4.38808114
  O      5.84153827     13.22698938     -4.33758808
  O      5.33459022     10.31594114     -4.33948525
  O      6.31809222     16.15381363     -4.23207249
  O     10.10791223      0.46833042     -3.11002101
  O     16.44651003     -0.61708002     -1.70070665
  O     10.68201109      3.38249012     -3.04381809
  O     16.95419177      2.29185279     -1.65407023
  O     11.10290146      6.32226118     -3.00609325
  O     17.44122571      5.21734545     -1.59995868
  O     12.08474057     12.15122173     -2.89569650
  O     18.42540647     11.05115108     -1.49192771
  O     11.58916204      9.23192461     -2.95003753
  O     18.00715113      8.12369156     -1.52790300
  O     12.64365780     15.05734443     -2.82914269
  O     18.91466676     13.97448237     -1.44057183
  O      0.75023070      2.11687931     -5.89829084
  O      1.31381629      5.01561944     -5.82891628
  O      1.81996759      7.92981018     -5.77576447
  O      2.80048639     13.76649828     -5.67933294
  O      2.30764440     10.84746736     -5.73049098
  O      3.28809387     16.68891146     -5.61924512
  O      7.17230299      0.94193475     -4.48189776
  O     13.51546825     -0.10521838     -3.07584784
  O      7.58989545      3.92869320     -4.45350500
  O     13.99739603      2.81860393     -3.02821649
  O      8.16843521      6.84024244     -4.39335752
  O     14.49588646      5.73543341     -2.98470441
  O      9.23357943     12.65474632     -4.25968342
  O     15.57565456     11.56311848     -2.85938778
  O      8.73954233      9.74279372     -4.31902576
  O     15.00007108      8.66369678     -2.92834397
  O      9.65253779     15.58151851     -4.22301158
  O     16.06992317     14.47743238     -2.80612157
  O      5.70063396      2.74932035     -6.23034037
  O      6.20249215      5.69767506     -6.17689420
  O      6.70659956      8.64416788     -6.12204917
  O      7.68039135     14.45351834     -6.01912398
  O      7.23022324     11.53512558     -6.13893135
  O      8.19292842     17.34948248     -6.01369641
  O     12.04411853      1.65392845     -4.82232905
  O     18.37967436      0.55929842     -3.41959852
  O     12.54897975      4.59748161     -4.76793958
  O     18.87608908      3.50562010     -3.36742145
  O     13.06493555      7.49836530     -4.68125074
  O     19.36670142      6.36251222     -3.31346394
  O     14.02824361     13.34933386     -4.60589101
  O     20.35670908     12.25661193     -3.20974145
  O     13.55199380     10.42584876     -4.63081020
  O     19.86831834      9.31330079     -3.26227561
  O     14.53560561     16.26229879     -4.52769148
  O     20.85295654     15.20154615     -3.15529056
  O      3.26001652      3.17739634     -6.77149320
  O      3.76266090      6.12129471     -6.71627014
  O      4.26167816      9.06985136     -6.66378974
  O      5.23738828     14.87360503     -6.56102454
  O      4.74195556     11.93465963     -6.61209892
  O      5.69650780     17.78670864     -6.49043749
  O      9.59982495      2.08138694     -5.36317626
  O     15.93995396      0.98741471     -3.96314182
  O     10.10062799      5.02315814     -5.31328699
  O     16.43786529      3.92035836     -3.91097400
  O     10.75682727      7.94267379     -5.48313455
  O     16.93896964      6.87164320     -3.85543819
  O     11.73791122     13.75200465     -5.30370148
  O     18.07086912     12.65468147     -3.90879929
  O     11.25282467     10.83354654     -5.35673913
  O     17.59013298      9.72886603     -3.95292801
  O     12.18845006     16.65946782     -5.25707969
  O     18.54481297     15.58303477     -3.85249137
  O      1.37147267      2.05481413     -8.35968243
  O      1.85876793      4.96321907     -8.31301685
  O      2.35735753      7.87785082     -8.25650938
  O      3.34613983     13.71984881     -8.15530109
  O      2.84377337     10.80141454     -8.20617349
  O      3.83021054     16.63424860     -8.09263393
  O      7.63142545      0.97168439     -6.97438146
  O     14.04890518     -0.13690000     -5.55475686
  O      8.19481054      3.84188490     -6.91137834
  O     14.46562369      2.76669657     -5.52374070
  O      8.61648004      6.79107019     -6.87721767
  O     15.03815266      5.67630032     -5.45920751
  O      9.60634746     12.63533693     -6.77094026
  O     15.94804349     11.54750539     -5.36920937
  O      9.18470775      9.71412482     -6.80462532
  O     15.52845471      8.61140722     -5.40750132
  O     10.09904907     15.53775562     -6.71140665
  O     16.44256072     14.46906228     -5.31919366
 Au      9.18760021      6.17683490      7.35314066
 Au      8.91180705     10.95422398      9.68360148
 Au     13.68911994      8.77033071      8.86773287
 Au     13.79622458     11.61352946      8.64985613
 Au     11.53828224      7.17597144      8.39125298
 Au     11.33163328      9.58503833      9.74866338
 Au     11.17572689     11.91148142      8.36491032
 Au      9.01021549      8.56243044      8.42218538
