#B3LYP/6-31+G(d) OPT FREQ

439, Energy = -13269.72194418 au

0 1
 Ti      1.57233538      0.72690255      4.67752640
 Ti      1.57621001      3.68991115      4.68415642
 Ti      1.57382085      6.63896485      4.67102603
 Ti      1.59743993     12.54430497      4.67955116
 Ti      1.56620979      9.59313815      4.67162304
 Ti      1.60395275     15.49806575      4.67717591
 Ti      7.86585827      0.72506798      4.73588924
 Ti     14.19282444      0.72425277      4.74398572
 Ti      7.88834131      3.68192298      4.75191295
 Ti     14.19703635      3.67352714      4.74533977
 Ti      7.87598934      6.62288013      4.77225058
 Ti     14.18120709      6.63071041      4.74706602
 Ti      7.86695176     12.53991815      4.73692016
 Ti     14.22924166     12.54297266      4.73596608
 Ti      7.91532961      9.58285707      4.80939035
 Ti     14.17857345      9.59647567      4.74696718
 Ti      7.89573354     15.49559054      4.73445255
 Ti     14.22438998     15.49786843      4.73613093
 Ti      4.71956632      2.18505192      5.30931699
 Ti      4.71415998      5.11274045      5.26811879
 Ti      4.71372275      8.11439973      5.24979340
 Ti      4.72366589     14.02262980      5.31257680
 Ti      4.72354471     11.07185805      5.29204589
 Ti      4.72243915     16.96210024      5.29135972
 Ti     11.03331114      2.13815498      5.29146600
 Ti     17.32508926      2.19518426      5.16414256
 Ti     11.03005452      4.94254636      4.78661073
 Ti     17.29742403      5.14742535      5.14365448
 Ti     11.03037074      8.35384939      4.85456552
 Ti     17.30744606      8.11184871      5.16892723
 Ti     11.04568358     14.06815654      5.28926401
 Ti     17.33564531     14.02556698      5.15089530
 Ti     11.04413491     11.18169454      5.26508256
 Ti     17.32595188     11.06900919      5.13768663
 Ti     11.04063635     16.96382585      5.28828921
 Ti     17.32790806     16.96950516      5.13307828
  O      4.72939929      0.71941524      3.75596185
  O      4.72449362      3.69676846      3.75768632
  O      4.72413889      6.62086219      3.74660497
  O      4.72236419     12.52594558      3.75953111
  O      4.72330309      9.59581058      3.75187465
  O      4.66031903     15.50234285      3.75535691
  O     11.03088540      0.71584049      3.76601755
  O     17.25582032      0.72053279      3.65698425
  O     11.02896475      3.55706694      3.67019879
  O     17.18707024      3.69814299      3.65613240
  O     11.02623089      6.62219587      3.75047865
  O     17.18999465      6.62534882      3.65521858
  O     11.02497383     12.53293351      3.75567953
  O     17.18528466     12.52833970      3.63712290
  O     11.02584197      9.67565573      3.65350753
  O     17.25334509      9.59538554      3.64890403
  O     11.02202777     15.51134268      3.75742869
  O     17.18615058     15.50658589      3.65023327
  O      4.72941704      0.71878125      6.38460564
  O      4.72659751      3.68803737      6.38277323
  O      4.79384064      6.62672924      6.38826263
  O      4.80247203      9.54963274      6.38595378
  O      4.73108245     12.52498471      6.38489071
  O      4.72873512     15.50055315      6.38602342
  O     11.03208301      0.70876076      6.39863502
  O     17.41187585      0.71932277      6.23678226
  O     11.03190039      3.71112605      6.24182913
  O     17.41096868      3.69078294      6.23613171
  O     17.34378891      6.62801787      6.23523611
  O     11.03266529     12.59858925      6.39470607
  O     17.41135057     12.53705369      6.22908415
  O     11.03163850      9.59598060      6.17150708
  O     17.40892907      9.59590918      6.23471211
  O     11.03107866     15.50980004      6.39305962
  O     17.41212939     15.49819486      6.23261577
  O      2.76591020      2.20755142      5.12324348
  O      2.76883168      5.18238588      5.13197989
  O      2.77207089      8.11402424      5.12632736
  O      2.75910551     14.01581527      5.19706189
  O      2.77384468     11.03448060      5.13128052
  O      2.76578962     17.00005095      5.12803578
  O      9.06803670      2.19554662      5.12675338
  O     15.35655156      2.20404845      5.19662195
  O      9.13081226      5.18490809      5.04084756
  O     15.29629918      5.13779776      5.27384435
  O      9.12976471      8.04824571      5.11691641
  O     15.31052303      8.11856820      5.20609030
  O      9.07040515     14.01832842      5.12204176
  O     15.36064171     14.01900475      5.20542052
  O      9.07207721     11.10136492      5.12367864
  O     15.35694157     11.03453700      5.19900651
  O      9.06954640     16.99294055      5.12603307
  O     15.35881382     16.99882825      5.20150258
  O      0.38982113      2.21174421      4.96302081
  O      0.38250247      5.17973944      4.96541257
  O      0.38404845      8.11005206      4.96594168
  O      0.38800605     14.01812365      4.88997501
  O      0.39468405     11.09282264      4.96298773
  O      0.39420196     16.94294590      4.96291339
  O      6.68456791      2.20750521      5.12344694
  O     12.98829658      2.20230202      5.11996701
  O      6.69438318      5.12590517      5.10854298
  O     12.92689585      5.18683885      5.03892242
  O      6.68905530      8.10948501      5.02801550
  O     12.92641971      8.09433241      5.05027488
  O      6.68150594     14.02330266      5.12277220
  O     12.98821535     14.02019742      5.04782565
  O      6.68605888     11.04988974      5.11284637
  O     12.99240218     11.10002338      5.11828942
  O      6.68445041     16.94756868      5.12299218
  O     12.99002134     16.94785911      5.11675430
 Ti      1.57597624      2.20200253      1.49627951
 Ti      1.57591129      5.15853730      1.50636849
 Ti      1.59034021      8.11450273      1.47513504
 Ti      1.56024007     14.02156714      1.49955486
 Ti      1.57638181     11.07280883      1.50100919
 Ti      1.57388451     16.96979971      1.50291274
 Ti      7.87626766      2.21519893      1.51219268
 Ti     14.25199217      2.20262888      1.50230807
 Ti      7.87692842      5.17321766      1.52784299
 Ti     14.24522274      5.16527425      1.51514109
 Ti      7.88139246      8.11263588      1.54127255
 Ti     14.26067640      8.11369443      1.50483114
 Ti      7.87727620     14.01298147      1.50332523
 Ti     14.20027974     14.02015234      1.49495932
 Ti      7.87924025     11.04377250      1.53994839
 Ti     14.25430929     11.06841574      1.50902556
 Ti      7.88177279     16.97410382      1.51536305
 Ti     14.22511212     16.97416114      1.51495622
 Ti      4.72599152      0.72054177      1.92672729
 Ti      4.71554538      3.67335906      1.91616539
 Ti      4.72088036      6.62627422      1.91915593
 Ti      4.71059963     12.54358836      1.92107646
 Ti      4.72647729      9.59415565      1.91768558
 Ti      4.70159452     15.49643854      1.91433245
 Ti     11.04739499      0.71992703      1.93135578
 Ti     17.39541269      0.71931425      1.76526163
 Ti     11.07050177      3.64533196      1.60268579
 Ti     17.35690033      3.68377789      1.76880004
 Ti     11.04899943      6.62813200      1.82757324
 Ti     17.38733711      6.63601798      1.78067258
 Ti     11.03143014     12.54957507      1.92238335
 Ti     17.34699246     12.54909990      1.76720582
 Ti     11.09463848      9.61254016      1.63502885
 Ti     17.40382140      9.59464504      1.77301689
 Ti     11.04806732     15.50635964      1.91237971
 Ti     17.33748306     15.49730077      1.75887562
  O      1.65087578      0.71953955      2.89203611
  O      1.65441962      3.69073549      2.89965202
  O      1.65617248      6.62509885      2.88615786
  O      1.66088908     12.53472044      2.89131145
  O      1.65330777      9.59818400      2.89015665
  O      1.65967529     15.50447537      2.88890051
  O      7.87582221      0.71969118      2.95514545
  O     14.25837998      0.72652103      2.95781676
  O      7.87932693      3.68932401      2.95896125
  O     14.26106511      3.69183355      2.95885832
  O      7.87952368      6.62112086      2.95972363
  O     14.26207015      6.62271851      2.96013214
  O      7.87874892     12.53100386      2.95465091
  O     14.26142708     12.52632422      2.95204863
  O      7.88325731      9.59699487      2.97465502
  O     14.25714935      9.60097599      2.95952460
  O      7.87843293     15.50563480      2.95449313
  O     14.26235023     15.50862656      2.95387599
  O      5.96440764      2.20432113      1.68272433
  O      5.95776959      5.14136684      1.67872413
  O      5.96448006      8.10840141      1.68215641
  O      5.95110188     14.02009028      1.68569148
  O      5.95563768     11.07928102      1.68114896
  O      5.95347872     16.95506500      1.68468488
  O     12.29278970      2.20225812      1.69099313
  O     18.62717566      2.21267533      1.83567045
  O     12.28763781      5.13513103      1.75573209
  O     18.62007458      5.14236874      1.83464331
  O     12.29285301      8.10826179      1.75696075
  O     18.64812575      8.10841361      1.83599911
  O     12.28699281     14.01924296      1.76170710
  O     18.61171365     14.02063191      1.83441445
  O     12.28967319     11.08659148      1.69204118
  O     18.62575785     11.09007266      1.83255517
  O     12.28918907     16.99050641      1.76135957
  O     18.61985901     16.94885488      1.83432434
  O      3.46944934      2.20231476      1.68771702
  O      3.47221983      5.13959024      1.68387346
  O      3.47325426      8.11073577      1.68657895
  O      3.46467180     14.01635553      1.68260128
  O      3.47212737     11.05094860      1.68558395
  O      3.46857661     16.99546750      1.68433958
  O      9.78445377      2.20547591      1.68103187
  O     16.13828196      2.20136306      1.53052834
  O      9.79983814      5.13727425      1.68418668
  O     16.13906914      5.18029633      1.52570337
  O      9.80133732      8.10984352      1.68426454
  O     16.14477428      8.11409248      1.52992909
  O      9.78379526     14.02071601      1.68949089
  O     16.11214267     14.01915164      1.52900554
  O      9.79340839     11.04453807      1.68042265
  O     16.14094051     11.03894298      1.52542890
  O      9.78779464     16.99060692      1.69066274
  O     16.13322218     16.99696448      1.53236298
  O      1.42435864      0.72113813      0.31684177
  O      1.42606367      3.68410654      0.31730117
  O      1.42365005      6.62310857      0.31875776
  O      1.43108428     12.54128001      0.31096667
  O      1.42502612      9.60335808      0.31470075
  O      1.42994777     15.50252525      0.31315493
  O      7.86971456      0.72826349      0.38398314
  O     14.17796265      0.72378249      0.38991146
  O      7.87578345      3.69148386      0.37471094
  O     14.18030757      3.69393958      0.38757278
  O      7.87799525      6.63059777      0.38257490
  O     14.17753952      6.63039518      0.38706179
  O      7.87195048     12.52947558      0.38806474
  O     14.17965815     12.53498084      0.38595708
  O      7.87392179      9.58699744      0.38583439
  O     14.17643072      9.58870090      0.38699473
  O      7.86919620     15.50311967      0.38530359
  O     14.17581646     15.50770526      0.38812220
 Ti      1.21202878      0.71942337     -1.75752175
 Ti      1.21975963      3.67805472     -1.74110369
 Ti      1.22111716      6.63676035     -1.75533981
 Ti      1.22849042     12.55412208     -1.76041713
 Ti      1.22816291      9.59460746     -1.76515972
 Ti      1.22709747     15.51555674     -1.75892704
 Ti      7.81592619      0.70815691     -1.75287415
 Ti     14.38158119      0.71494161     -1.74474248
 Ti      7.80441092      3.67854378     -1.75257935
 Ti     14.37667801      3.68492053     -1.74500898
 Ti      7.81736303      6.63892084     -1.77625323
 Ti     14.39331679      6.64344134     -1.77549943
 Ti      7.83696388     12.55658465     -1.73913837
 Ti     14.41282109     12.55049553     -1.76073407
 Ti      7.83299588      9.59648136     -1.75768511
 Ti     14.39561168      9.59560913     -1.76648022
 Ti      7.81589198     15.51260085     -1.75790650
 Ti     14.40934091     15.51010728     -1.75630241
 Ti      4.52199207      2.19050397     -1.59161227
 Ti      4.52373824      5.15426536     -1.55230957
 Ti      4.52843688      8.11879900     -1.54955447
 Ti      4.52242957     14.02788300     -1.58772473
 Ti      4.53079138     11.07968169     -1.59126437
 Ti      4.51358792     17.00203362     -1.57907569
 Ti     11.08823270      2.18916184     -1.58733264
 Ti     17.65604673      2.19783817     -1.55248141
 Ti     11.08432363      5.15913192     -1.58883355
 Ti     17.66893902      5.16127300     -1.56595475
 Ti     11.08575948      8.12733818     -1.56890861
 Ti     17.68745030      8.12028738     -1.56060303
 Ti     11.11629116     14.03082356     -1.56258642
 Ti     17.68818458     14.03100085     -1.55812337
 Ti     11.09881007     11.08605676     -1.56207204
 Ti     17.69462097     11.07650451     -1.55489374
 Ti     11.10410228     16.98111534     -1.56242844
 Ti     17.67622831     16.99175535     -1.55176830
 Ti      1.30369970      2.19477698     -5.04772806
 Ti      1.31326858      5.12839073     -5.06048784
 Ti      1.30359635      8.09782824     -5.06656126
 Ti      1.29820627     14.00489532     -5.04681690
 Ti      1.30725828     11.07251972     -5.06745828
 Ti      1.18973891     16.97985252     -5.06112726
 Ti      7.88664190      2.17917051     -5.02767245
 Ti     14.46226053      2.18925818     -5.03217217
 Ti      7.90023798      5.11224747     -5.08518336
 Ti     14.48015323      5.11228181     -5.08395591
 Ti      7.89220098      8.10050586     -5.10119657
 Ti     14.47471673      8.10258285     -5.09878726
 Ti      7.90136460     14.00015542     -5.07435167
 Ti     14.48080143     14.05402072     -5.10816406
 Ti      7.90055760     11.08069982     -5.06893140
 Ti     14.49247153     11.08398312     -5.09432306
 Ti      7.79144382     16.97928002     -5.08718989
 Ti     14.46501303     16.99934982     -5.08067258
 Ti      4.50271475      0.67853286     -4.94553993
 Ti      4.59738169      3.66118026     -4.86025121
 Ti      4.58795066      6.64821928     -4.84268471
 Ti      4.60536881     12.54970432     -4.94445295
 Ti      4.55390161      9.59821891     -4.86271729
 Ti      4.49358231     15.51842562     -4.83720531
 Ti     11.07892972      0.67118858     -4.85049841
 Ti     17.67039963      0.74986841     -4.84503371
 Ti     11.18252030      3.65473495     -4.85592691
 Ti     17.76770073      3.67433079     -4.85125511
 Ti     11.15972404      6.63934225     -4.84267761
 Ti     17.67063633      6.63780116     -4.84905131
 Ti     11.17112152     12.54017942     -4.85760201
 Ti     17.76086193     12.53997692     -4.85494921
 Ti     11.16798488      9.57195295     -4.84076381
 Ti     17.76496603      9.55830793     -4.84740701
 Ti     11.15998408     15.52326962     -4.85603701
 Ti     17.68720513     15.52292102     -4.85539531
  O      4.50839834      0.71926992     -0.34010255
  O      4.51180337      3.65916205     -0.33721896
  O      4.51887021      6.64521145     -0.32875073
  O      4.51161413     12.54452216     -0.34718719
  O      4.51399177      9.60207771     -0.33527885
  O      4.50858683     15.51999133     -0.34330149
  O     11.09212688      0.71909360     -0.33393099
  O     17.67306178      0.71960864     -0.32624871
  O     11.08613898      3.66660444     -0.33859022
  O     17.67187301      3.67579707     -0.33129425
  O     11.08687446      6.64625509     -0.33282806
  O     17.67882754      6.64937818     -0.33545907
  O     11.09791677     12.54805853     -0.32934449
  O     17.68737917     12.54486418     -0.32962540
  O     11.08851999      9.59698890     -0.33086711
  O     17.68149603      9.59505575     -0.33078478
  O     11.10075215     15.51551655     -0.32912311
  O     17.68061647     15.52098124     -0.32755178
  O      2.52847458      2.19707998     -1.67679718
  O      2.52832193      5.15681189     -1.59992168
  O      2.53206906      8.11526864     -1.59912302
  O      2.53200488     14.03278665     -1.67630701
  O      2.53590867     11.07698556     -1.67230927
  O      2.52677125     17.00029427     -1.67740184
  O      9.11406052      2.19884860     -1.67864147
  O     15.66027481      2.20128230     -1.60682690
  O      9.11371744      5.15178411     -1.67959564
  O     15.68312353      5.15606203     -1.67034020
  O      9.11588751      8.11405535     -1.67463941
  O     15.69644398      8.11745240     -1.67484631
  O      9.12073918     14.04147867     -1.59814875
  O     15.69885201     14.03604208     -1.59316166
  O      9.11817370     11.07935990     -1.59758737
  O     15.69852913     11.07306338     -1.59923402
  O      9.11734449     16.99008436     -1.59691019
  O     15.68684695     16.99659036     -1.59685671
  O     -0.10072615      2.20175982     -1.60244580
  O     -0.09579378      5.15240906     -1.67670630
  O     -0.07514011      8.11249668     -1.67802483
  O     -0.07997509     14.03686181     -1.67843142
  O     -0.06251463     11.07923762     -1.67655237
  O     -0.08890155     16.99510939     -1.61109102
  O      6.53071700      2.19032508     -1.67172479
  O     13.06451304      2.19708269     -1.67898259
  O      6.52627547      5.15988572     -1.66892877
  O     13.06317794      5.16288646     -1.67592260
  O      6.53688575      8.12127107     -1.67584601
  O     13.06545909      8.11712948     -1.67680757
  O      6.53388118     14.03021317     -1.67708590
  O     13.11354058     14.03292781     -1.68743175
  O      6.54354296     11.07890128     -1.68159552
  O     13.07787612     11.07697217     -1.68239403
  O      6.51999909     16.98999569     -1.67025951
  O     13.08496487     16.98988190     -1.68200143
  O      4.53786602      0.70758103     -2.98954359
  O      4.54403684      3.67864201     -2.95059834
  O      4.54353763      6.63931244     -2.94590286
  O      4.54931403     12.55001857     -3.00414110
  O      4.54615327      9.59563606     -2.95107735
  O      4.54267882     15.51674688     -2.94921836
  O     11.04506561      0.70543087     -2.94757649
  O     17.62852426      0.71755324     -2.94208397
  O     11.12606359      3.67523189     -2.95208329
  O     17.64228330      3.67077609     -2.95163973
  O     11.04922967      6.64422526     -2.95127756
  O     17.63499851      6.63701585     -2.94918907
  O     11.04627626     12.55632668     -2.94631192
  O     17.63298724     12.55424168     -2.94694517
  O     11.04425365      9.59476593     -2.94705195
  O     17.71067856      9.59785626     -2.94637882
  O     11.11407381     15.51567955     -2.94738607
  O     17.62761844     15.51867240     -2.94770046
  O      1.16730567      0.72032719     -3.64614811
  O      1.24142946      3.67323106     -3.64559693
  O      1.25422791      6.63149921     -3.64836590
  O      1.24573761     12.55074781     -3.65661944
  O      1.24698371      9.58996293     -3.65482874
  O      1.24079256     15.51415465     -3.64850943
  O      7.84755798      0.65822843     -3.65317225
  O     14.42834009      0.70876926     -3.65114366
  O      7.75772666      3.67282632     -3.65992126
  O     14.41503644      3.67239459     -3.65396500
  O      7.84214381      6.64068554     -3.67133771
  O     14.41796467      6.63181367     -3.66446899
  O      7.92675950     12.55284276     -3.66165811
  O     14.51267915     12.55925359     -3.66583031
  O      7.92393007      9.59868971     -3.66747811
  O     14.42720808      9.60368487     -3.66342736
  O      7.85000805     15.50868029     -3.66170648
  O     14.51404225     15.51566398     -3.66595195
  O      5.75671982      2.16324301     -5.01435958
  O      5.75975303      5.15448081     -5.01530183
  O      5.76556015      8.14428322     -5.01539114
  O      5.75653567     14.03557632     -5.01636649
  O      5.78411909     11.08130282     -5.09072135
  O      5.76834411     16.97608362     -5.06744863
  O     12.34626893      2.16631666     -5.01136403
  O     18.92693223      2.16872457     -5.01182269
  O     12.35319463      5.15333855     -5.01211275
  O     18.92479343      5.15702773     -5.01288125
  O     12.38480073      8.10072512     -4.98445473
  O     18.93235633      8.05623231     -5.01259674
  O     12.35286853     14.03080392     -5.00936198
  O     18.92498483     14.03379252     -5.01470270
  O     12.37642473     11.06886562     -4.98555887
  O     18.93427013     11.04978872     -5.01564865
  O     12.37237753     16.98851532     -4.98794386
  O     18.92340113     17.02074082     -5.01352979
  O      3.22044698      2.16860736     -5.01483320
  O      3.22535877      5.15561492     -5.01428870
  O      3.22541749      8.14656077     -5.01556500
  O      3.21913862     14.03265332     -5.01720782
  O      3.22122825     11.05180552     -5.01514675
  O      3.19055941     16.98232112     -4.99293827
  O      9.80662525      2.17046481     -5.01076665
  O     16.39100653      2.17423529     -5.01482192
  O      9.80898175      5.15497252     -5.01507870
  O     16.39253663      5.14959923     -5.01645290
  O      9.91779221      8.13950322     -5.26757440
  O     16.39480123      8.14363750     -5.01513968
  O      9.93210408     14.03336686     -5.19536888
  O     16.50904620     14.03254601     -5.20296988
  O      9.94031990     11.07440600     -5.19705723
  O     16.52457610     11.06721736     -5.19701748
  O      9.89109481     16.97561302     -5.19278317
  O     16.48915131     16.99946280     -5.19553072
  O      1.25088733      0.71851802     -6.18411049
  O      1.24511498      3.66782190     -6.18930110
  O      1.25127594      6.62532430     -6.18717196
  O      1.25087407     12.55127117     -6.19242414
  O      1.24291261      9.58949157     -6.18831295
  O      1.24441005     15.50623474     -6.18118684
  O      7.75313584      0.71934483     -6.18526678
  O     14.41859379      0.72195880     -6.18694327
  O      7.83046563      3.64396538     -6.19141794
  O     14.34234357      3.65447390     -6.19246203
  O      7.75205245      6.62230557     -6.19408800
  O     14.42223371      6.61949175     -6.19834840
  O      7.75339785     12.55076102     -6.19457837
  O     14.33862573     12.56087697     -6.19719842
  O      7.82727799      9.60001139     -6.19093921
  O     14.41597948      9.59571130     -6.19876855
  O      7.75657171     15.49529594     -6.18846092
  O     14.33832771     15.52441085     -6.20041601
 Au     11.85782776      8.16261866      8.41401502
 Au     12.14446101     10.76929138      9.04668983
 Au      8.53321453      4.70355774      8.02951590
 Au      6.63433372      6.61332010      7.79342649
 Au      9.17852613      7.40327232      8.15048523
 Au      9.59688573     10.09937590      8.54267945
 Au     11.30888993      5.72299701      7.53187753
 Au      7.15287230      9.44305292      7.69625146

