#B3LYP/6-31+G(d) OPT FREQ

439, Energy = -13269.72810188 au

0 1
 Ti      1.57212933      0.72629722      4.70168576
 Ti      1.57772906      3.69080884      4.70033500
 Ti      1.57546937      6.63754869      4.67428952
 Ti      1.58346995     12.53266656      4.71873351
 Ti      1.57694192      9.58213628      4.67970373
 Ti      1.59484199     15.49395588      4.70047076
 Ti      7.86651887      0.72514615      4.73517441
 Ti     14.19870436      0.72260164      4.74418065
 Ti      7.88682989      3.68067864      4.73929415
 Ti     14.19519571      3.66972097      4.73553180
 Ti      7.89894902      6.64118938      4.79468858
 Ti     14.19982299      6.62237758      4.74771570
 Ti      7.86563563     12.54299002      4.73611609
 Ti     14.21320461     12.54095919      4.73193117
 Ti      7.88386778      9.59077304      4.75589872
 Ti     14.13471670      9.58940325      4.79924198
 Ti      7.88855290     15.49752344      4.73540886
 Ti     14.22056746     15.49576399      4.73620400
 Ti      4.71816832      2.19177055      5.31432862
 Ti      4.72420626      5.13627015      5.28924137
 Ti      4.71739197      8.10124606      5.28683542
 Ti      4.72292229     14.00994534      5.31886140
 Ti      4.72121110     11.04562716      5.31006926
 Ti      4.72341288     16.96037292      5.29518754
 Ti     11.03175103      2.11967696      5.28669292
 Ti     17.33053564      2.19341537      5.17416623
 Ti     11.01259763      4.94691949      4.80904417
 Ti     17.30592342      5.14197950      5.14852192
 Ti     11.03298125      8.35071909      4.80051386
 Ti     17.30224391      8.10822677      5.16837257
 Ti     11.03937042     14.06566578      5.27994693
 Ti     17.33264292     14.02778931      5.16648457
 Ti     11.01604477     11.16386061      5.26446839
 Ti     17.32153472     11.07726338      5.13507784
 Ti     11.04097311     16.95282477      5.28704499
 Ti     17.33229117     16.96815898      5.14106482
  O      4.72957951      0.72055199      3.75687817
  O      4.72673236      3.69634449      3.75535261
  O      4.72350093      6.62035954      3.75146091
  O      4.72539393     12.52994298      3.76043199
  O      4.72358553      9.60115891      3.75011217
  O      4.72111796     15.50564765      3.75109051
  O     11.03081903      0.71904818      3.77168347
  O     17.26441130      0.71984197      3.66922596
  O     10.95832784      3.61133288      3.66776917
  O     17.25202384      3.69892039      3.66679509
  O     10.95848076      6.61563474      3.75195516
  O     17.18044581      6.62378158      3.65773978
  O     10.95958441     12.53561119      3.75872992
  O     17.19104557     12.52526920      3.66111689
  O     11.02597577      9.68292617      3.62423075
  O     17.25542120      9.59788630      3.65350160
  O     11.02421885     15.51031832      3.76060619
  O     17.24912529     15.50441016      3.66554876
  O      4.73081389      0.71935423      6.38521021
  O      4.72792201      3.68882178      6.38691421
  O      4.80870705      6.62378576      6.39049270
  O      4.73348087      9.54952770      6.38378506
  O      4.73093818     12.52431937      6.38825015
  O      4.72889803     15.49912634      6.38603188
  O     11.03197685      0.70721517      6.39934249
  O     17.40811219      0.71890672      6.24265344
  O     11.03367034      3.69682608      6.24435285
  O     17.40754043      3.69288270      6.24285838
  O     17.34250576      6.62950253      6.23722351
  O     11.03689681     12.59551744      6.38896155
  O     17.40758046     12.52996163      6.23776768
  O     11.02258446      9.54791158      6.16122802
  O     17.32877646      9.59303055      6.24549828
  O     11.02979449     15.50634829      6.39368625
  O     17.40509623     15.49871137      6.24220091
  O      2.77037994      2.20715606      5.12358705
  O      2.76887657      5.18060835      5.13488723
  O      2.76895226      8.10881078      5.12744107
  O      2.76173569     14.01502134      5.19531449
  O      2.77240518     11.03772781      5.12929782
  O      2.77174094     16.99316663      5.12648229
  O      9.06758624      2.19783337      5.12688368
  O     15.35781749      2.20342598      5.19534966
  O      9.11751468      5.18352239      5.12930230
  O     15.29511249      5.12641069      5.27860284
  O      9.12388728      8.10560529      5.03754766
  O     15.30917305      8.11213726      5.19331585
  O      9.06749943     14.01976588      5.12508276
  O     15.35728557     14.01943986      5.20372273
  O      9.06552860     11.09739235      5.12416427
  O     15.33587596     11.04362767      5.19425329
  O      9.07095778     16.99087337      5.12563255
  O     15.35945831     16.99420008      5.19971466
  O      0.39706121      2.21019270      5.03460813
  O      0.38253332      5.18432454      4.97043004
  O      0.37731512      8.10984857      4.96956988
  O      0.39014738     14.01596669      4.96345625
  O      0.39278889     11.03861827      5.03620957
  O      0.40092739     16.94575160      5.03454285
  O      6.68703799      2.21058405      5.12274631
  O     12.98368060      2.20431239      5.11727811
  O      6.69948940      5.12613363      5.12248859
  O     12.92173464      5.17700039      4.96200628
  O      6.68631902      8.12497643      5.03516967
  O     12.91497639      8.03877148      5.03398318
  O      6.68450214     14.02118763      5.12542948
  O     12.98002769     14.01881108      5.04725130
  O      6.68532854     11.04274408      5.12659591
  O     12.94096958     11.10606529      5.04072620
  O      6.68768598     16.95208876      5.12585748
  O     12.98866951     16.94906309      5.11788170
 Ti      1.58859641      2.20071239      1.50095582
 Ti      1.57890473      5.16161676      1.50857978
 Ti      1.57884596      8.11508016      1.48444944
 Ti      1.56823159     14.02298514      1.51198423
 Ti      1.57832367     11.07227409      1.51010808
 Ti      1.57858589     16.96977444      1.51250575
 Ti      7.87433891      2.21387664      1.50541303
 Ti     14.25908426      2.20607441      1.50760259
 Ti      7.87246080      5.17798823      1.53211340
 Ti     14.24620418      5.17120479      1.51142054
 Ti      7.87457835      8.10371351      1.53551789
 Ti     14.25435829      8.11997222      1.52241392
 Ti      7.88094977     14.01815974      1.50748282
 Ti     14.20176466     14.01120568      1.48773292
 Ti      7.87410969     11.04974447      1.51976006
 Ti     14.25394464     11.05318714      1.52794053
 Ti      7.88221322     16.97599258      1.51960742
 Ti     14.22469889     16.97218420      1.51892442
 Ti      4.72277722      0.72796074      1.93354873
 Ti      4.72326355      3.68356961      1.92590252
 Ti      4.71204382      6.63591409      1.92762315
 Ti      4.71795892     12.55202707      1.93429708
 Ti      4.71698442      9.60123180      1.92232391
 Ti      4.71819194     15.50345049      1.91762765
 Ti     11.04593541      0.72245789      1.93696956
 Ti     17.39553087      0.71985736      1.77682509
 Ti     11.07318931      3.64689482      1.60118188
 Ti     17.39789697      3.68364035      1.77349995
 Ti     11.03664238      6.62568177      1.81865927
 Ti     17.35536454      6.63360814      1.78121108
 Ti     11.02547969     12.54703368      1.92955686
 Ti     17.34814321     12.54937169      1.76910998
 Ti     11.09352681      9.61565393      1.62214982
 Ti     17.40391793      9.59485562      1.78125027
 Ti     11.05109978     15.50586853      1.91106424
 Ti     17.35002759     15.49627244      1.76404971
  O      1.64804012      0.72009092      2.91307799
  O      1.65055950      3.69027694      2.91645793
  O      1.65704219      6.62772420      2.88764230
  O      1.65339011     12.53417913      2.93836548
  O      1.65210435      9.59996379      2.89031618
  O      1.65612434     15.50334858      2.90824113
  O      7.87590662      0.72513589      2.95595241
  O     14.25689799      0.72229581      2.96146413
  O      7.87921282      3.69428161      2.95712065
  O     14.26305525      3.69192296      2.95608440
  O      7.87929125      6.61874482      2.96310770
  O     14.26617493      6.62123573      2.95520786
  O      7.87856611     12.53005387      2.95441520
  O     14.26477200     12.53128440      2.95128523
  O      7.88057255      9.60331695      2.95759023
  O     14.25621764      9.59481160      2.97291000
  O      7.87680429     15.50502212      2.95510538
  O     14.26198178     15.50684819      2.95533242
  O      5.96799219      2.20721438      1.68263073
  O      5.95587722      5.16731290      1.67801397
  O      5.95918433      8.11369686      1.68359239
  O      5.96452738     14.02392637      1.68273604
  O      5.95754974     11.07755079      1.68039235
  O      5.96253613     16.98701013      1.68277164
  O     12.29412787      2.20784187      1.75632830
  O     18.64412438      2.20637798      1.83535864
  O     12.28550422      5.13884048      1.75666949
  O     18.62122183      5.17937362      1.83425113
  O     12.28856330      8.10428100      1.75805806
  O     18.63006700      8.10418519      1.83541458
  O     12.28709631     14.01758377      1.76390412
  O     18.61411853     14.01675887      1.83623189
  O     12.28973201     11.08933021      1.74876544
  O     18.62234965     11.09379780      1.83482984
  O     12.28893566     16.99217402      1.76040449
  O     18.62481247     16.95268852      1.83257942
  O      3.47172690      2.20649184      1.68887610
  O      3.47131705      5.14025422      1.68466933
  O      3.46906395      8.11460886      1.68583120
  O      3.46804229     14.02154226      1.68686092
  O      3.47052645     11.08873080      1.68603257
  O      3.47177908     16.99161741      1.68777037
  O      9.78641435      2.20548560      1.67947256
  O     16.14268703      2.20519838      1.59476699
  O      9.79441479      5.13758353      1.67712144
  O     16.14077063      5.13525616      1.52747348
  O      9.79449895      8.11187651      1.68211810
  O     16.13961624      8.11756742      1.52904409
  O      9.78474280     14.02418441      1.68820744
  O     16.12187969     14.02130882      1.53377878
  O      9.79043195     11.04308804      1.67458033
  O     16.14039189     11.04319994      1.52810355
  O      9.78599987     16.99039711      1.74781517
  O     16.13387111     16.99510856      1.59254860
  O      1.42761757      0.71965925      0.32119784
  O      1.42557709      3.68523898      0.32142646
  O      1.42481234      6.62502980      0.31993250
  O      1.43260923     12.54531111      0.32017066
  O      1.42478798      9.60594199      0.31857833
  O      1.43204228     15.50057462      0.31999021
  O      7.87502209      0.72712858      0.38269505
  O     14.18069233      0.72571884      0.39323779
  O      7.87459237      3.69330296      0.37597417
  O     14.17776025      3.68842497      0.38740383
  O      7.87768141      6.63144586      0.37793218
  O     14.17969492      6.63169727      0.38882978
  O      7.87242848     12.53335475      0.38416498
  O     14.17887085     12.52886827      0.39007651
  O      7.87299102      9.58219680      0.38087675
  O     14.17317321      9.59063572      0.39047442
  O      7.87249841     15.50727919      0.38694138
  O     14.17882762     15.50898588      0.38911394
 Ti      1.21202878      0.71942337     -1.75752175
 Ti      1.21975963      3.67805472     -1.74110369
 Ti      1.22111716      6.63676035     -1.75533981
 Ti      1.22849042     12.55412208     -1.76041713
 Ti      1.22816291      9.59460746     -1.76515972
 Ti      1.22709747     15.51555674     -1.75892704
 Ti      7.81592619      0.70815691     -1.75287415
 Ti     14.38158119      0.71494161     -1.74474248
 Ti      7.80441092      3.67854378     -1.75257935
 Ti     14.37667801      3.68492053     -1.74500898
 Ti      7.81736303      6.63892084     -1.77625323
 Ti     14.39331679      6.64344134     -1.77549943
 Ti      7.83696388     12.55658465     -1.73913837
 Ti     14.41282109     12.55049553     -1.76073407
 Ti      7.83299588      9.59648136     -1.75768511
 Ti     14.39561168      9.59560913     -1.76648022
 Ti      7.81589198     15.51260085     -1.75790650
 Ti     14.40934091     15.51010728     -1.75630241
 Ti      4.52199207      2.19050397     -1.59161227
 Ti      4.52373824      5.15426536     -1.55230957
 Ti      4.52843688      8.11879900     -1.54955447
 Ti      4.52242957     14.02788300     -1.58772473
 Ti      4.53079138     11.07968169     -1.59126437
 Ti      4.51358792     17.00203362     -1.57907569
 Ti     11.08823270      2.18916184     -1.58733264
 Ti     17.65604673      2.19783817     -1.55248141
 Ti     11.08432363      5.15913192     -1.58883355
 Ti     17.66893902      5.16127300     -1.56595475
 Ti     11.08575948      8.12733818     -1.56890861
 Ti     17.68745030      8.12028738     -1.56060303
 Ti     11.11629116     14.03082356     -1.56258642
 Ti     17.68818458     14.03100085     -1.55812337
 Ti     11.09881007     11.08605676     -1.56207204
 Ti     17.69462097     11.07650451     -1.55489374
 Ti     11.10410228     16.98111534     -1.56242844
 Ti     17.67622831     16.99175535     -1.55176830
 Ti      1.30369970      2.19477698     -5.04772806
 Ti      1.31326858      5.12839073     -5.06048784
 Ti      1.30359635      8.09782824     -5.06656126
 Ti      1.29820627     14.00489532     -5.04681690
 Ti      1.30725828     11.07251972     -5.06745828
 Ti      1.18973891     16.97985252     -5.06112726
 Ti      7.88664190      2.17917051     -5.02767245
 Ti     14.46226053      2.18925818     -5.03217217
 Ti      7.90023798      5.11224747     -5.08518336
 Ti     14.48015323      5.11228181     -5.08395591
 Ti      7.89220098      8.10050586     -5.10119657
 Ti     14.47471673      8.10258285     -5.09878726
 Ti      7.90136460     14.00015542     -5.07435167
 Ti     14.48080143     14.05402072     -5.10816406
 Ti      7.90055760     11.08069982     -5.06893140
 Ti     14.49247153     11.08398312     -5.09432306
 Ti      7.79144382     16.97928002     -5.08718989
 Ti     14.46501303     16.99934982     -5.08067258
 Ti      4.50271475      0.67853286     -4.94553993
 Ti      4.59738169      3.66118026     -4.86025121
 Ti      4.58795066      6.64821928     -4.84268471
 Ti      4.60536881     12.54970432     -4.94445295
 Ti      4.55390161      9.59821891     -4.86271729
 Ti      4.49358231     15.51842562     -4.83720531
 Ti     11.07892972      0.67118858     -4.85049841
 Ti     17.67039963      0.74986841     -4.84503371
 Ti     11.18252030      3.65473495     -4.85592691
 Ti     17.76770073      3.67433079     -4.85125511
 Ti     11.15972404      6.63934225     -4.84267761
 Ti     17.67063633      6.63780116     -4.84905131
 Ti     11.17112152     12.54017942     -4.85760201
 Ti     17.76086193     12.53997692     -4.85494921
 Ti     11.16798488      9.57195295     -4.84076381
 Ti     17.76496603      9.55830793     -4.84740701
 Ti     11.15998408     15.52326962     -4.85603701
 Ti     17.68720513     15.52292102     -4.85539531
  O      4.50839834      0.71926992     -0.34010255
  O      4.51180337      3.65916205     -0.33721896
  O      4.51887021      6.64521145     -0.32875073
  O      4.51161413     12.54452216     -0.34718719
  O      4.51399177      9.60207771     -0.33527885
  O      4.50858683     15.51999133     -0.34330149
  O     11.09212688      0.71909360     -0.33393099
  O     17.67306178      0.71960864     -0.32624871
  O     11.08613898      3.66660444     -0.33859022
  O     17.67187301      3.67579707     -0.33129425
  O     11.08687446      6.64625509     -0.33282806
  O     17.67882754      6.64937818     -0.33545907
  O     11.09791677     12.54805853     -0.32934449
  O     17.68737917     12.54486418     -0.32962540
  O     11.08851999      9.59698890     -0.33086711
  O     17.68149603      9.59505575     -0.33078478
  O     11.10075215     15.51551655     -0.32912311
  O     17.68061647     15.52098124     -0.32755178
  O      2.52847458      2.19707998     -1.67679718
  O      2.52832193      5.15681189     -1.59992168
  O      2.53206906      8.11526864     -1.59912302
  O      2.53200488     14.03278665     -1.67630701
  O      2.53590867     11.07698556     -1.67230927
  O      2.52677125     17.00029427     -1.67740184
  O      9.11406052      2.19884860     -1.67864147
  O     15.66027481      2.20128230     -1.60682690
  O      9.11371744      5.15178411     -1.67959564
  O     15.68312353      5.15606203     -1.67034020
  O      9.11588751      8.11405535     -1.67463941
  O     15.69644398      8.11745240     -1.67484631
  O      9.12073918     14.04147867     -1.59814875
  O     15.69885201     14.03604208     -1.59316166
  O      9.11817370     11.07935990     -1.59758737
  O     15.69852913     11.07306338     -1.59923402
  O      9.11734449     16.99008436     -1.59691019
  O     15.68684695     16.99659036     -1.59685671
  O     -0.10072615      2.20175982     -1.60244580
  O     -0.09579378      5.15240906     -1.67670630
  O     -0.07514011      8.11249668     -1.67802483
  O     -0.07997509     14.03686181     -1.67843142
  O     -0.06251463     11.07923762     -1.67655237
  O     -0.08890155     16.99510939     -1.61109102
  O      6.53071700      2.19032508     -1.67172479
  O     13.06451304      2.19708269     -1.67898259
  O      6.52627547      5.15988572     -1.66892877
  O     13.06317794      5.16288646     -1.67592260
  O      6.53688575      8.12127107     -1.67584601
  O     13.06545909      8.11712948     -1.67680757
  O      6.53388118     14.03021317     -1.67708590
  O     13.11354058     14.03292781     -1.68743175
  O      6.54354296     11.07890128     -1.68159552
  O     13.07787612     11.07697217     -1.68239403
  O      6.51999909     16.98999569     -1.67025951
  O     13.08496487     16.98988190     -1.68200143
  O      4.53786602      0.70758103     -2.98954359
  O      4.54403684      3.67864201     -2.95059834
  O      4.54353763      6.63931244     -2.94590286
  O      4.54931403     12.55001857     -3.00414110
  O      4.54615327      9.59563606     -2.95107735
  O      4.54267882     15.51674688     -2.94921836
  O     11.04506561      0.70543087     -2.94757649
  O     17.62852426      0.71755324     -2.94208397
  O     11.12606359      3.67523189     -2.95208329
  O     17.64228330      3.67077609     -2.95163973
  O     11.04922967      6.64422526     -2.95127756
  O     17.63499851      6.63701585     -2.94918907
  O     11.04627626     12.55632668     -2.94631192
  O     17.63298724     12.55424168     -2.94694517
  O     11.04425365      9.59476593     -2.94705195
  O     17.71067856      9.59785626     -2.94637882
  O     11.11407381     15.51567955     -2.94738607
  O     17.62761844     15.51867240     -2.94770046
  O      1.16730567      0.72032719     -3.64614811
  O      1.24142946      3.67323106     -3.64559693
  O      1.25422791      6.63149921     -3.64836590
  O      1.24573761     12.55074781     -3.65661944
  O      1.24698371      9.58996293     -3.65482874
  O      1.24079256     15.51415465     -3.64850943
  O      7.84755798      0.65822843     -3.65317225
  O     14.42834009      0.70876926     -3.65114366
  O      7.75772666      3.67282632     -3.65992126
  O     14.41503644      3.67239459     -3.65396500
  O      7.84214381      6.64068554     -3.67133771
  O     14.41796467      6.63181367     -3.66446899
  O      7.92675950     12.55284276     -3.66165811
  O     14.51267915     12.55925359     -3.66583031
  O      7.92393007      9.59868971     -3.66747811
  O     14.42720808      9.60368487     -3.66342736
  O      7.85000805     15.50868029     -3.66170648
  O     14.51404225     15.51566398     -3.66595195
  O      5.75671982      2.16324301     -5.01435958
  O      5.75975303      5.15448081     -5.01530183
  O      5.76556015      8.14428322     -5.01539114
  O      5.75653567     14.03557632     -5.01636649
  O      5.78411909     11.08130282     -5.09072135
  O      5.76834411     16.97608362     -5.06744863
  O     12.34626893      2.16631666     -5.01136403
  O     18.92693223      2.16872457     -5.01182269
  O     12.35319463      5.15333855     -5.01211275
  O     18.92479343      5.15702773     -5.01288125
  O     12.38480073      8.10072512     -4.98445473
  O     18.93235633      8.05623231     -5.01259674
  O     12.35286853     14.03080392     -5.00936198
  O     18.92498483     14.03379252     -5.01470270
  O     12.37642473     11.06886562     -4.98555887
  O     18.93427013     11.04978872     -5.01564865
  O     12.37237753     16.98851532     -4.98794386
  O     18.92340113     17.02074082     -5.01352979
  O      3.22044698      2.16860736     -5.01483320
  O      3.22535877      5.15561492     -5.01428870
  O      3.22541749      8.14656077     -5.01556500
  O      3.21913862     14.03265332     -5.01720782
  O      3.22122825     11.05180552     -5.01514675
  O      3.19055941     16.98232112     -4.99293827
  O      9.80662525      2.17046481     -5.01076665
  O     16.39100653      2.17423529     -5.01482192
  O      9.80898175      5.15497252     -5.01507870
  O     16.39253663      5.14959923     -5.01645290
  O      9.91779221      8.13950322     -5.26757440
  O     16.39480123      8.14363750     -5.01513968
  O      9.93210408     14.03336686     -5.19536888
  O     16.50904620     14.03254601     -5.20296988
  O      9.94031990     11.07440600     -5.19705723
  O     16.52457610     11.06721736     -5.19701748
  O      9.89109481     16.97561302     -5.19278317
  O     16.48915131     16.99946280     -5.19553072
  O      1.25088733      0.71851802     -6.18411049
  O      1.24511498      3.66782190     -6.18930110
  O      1.25127594      6.62532430     -6.18717196
  O      1.25087407     12.55127117     -6.19242414
  O      1.24291261      9.58949157     -6.18831295
  O      1.24441005     15.50623474     -6.18118684
  O      7.75313584      0.71934483     -6.18526678
  O     14.41859379      0.72195880     -6.18694327
  O      7.83046563      3.64396538     -6.19141794
  O     14.34234357      3.65447390     -6.19246203
  O      7.75205245      6.62230557     -6.19408800
  O     14.42223371      6.61949175     -6.19834840
  O      7.75339785     12.55076102     -6.19457837
  O     14.33862573     12.56087697     -6.19719842
  O      7.82727799      9.60001139     -6.19093921
  O     14.41597948      9.59571130     -6.19876855
  O      7.75657171     15.49529594     -6.18846092
  O     14.33832771     15.52441085     -6.20041601
 Au      7.32025858      6.95227613      7.64348437
 Au     12.72392340      7.71770657      8.10170687
 Au      9.69866652     11.59557182      8.74759970
 Au     12.09004255     10.37325545      8.52816622
 Au     10.02528704      6.99817407      7.87447495
 Au     12.00174934      5.22536718      7.65318195
 Au      8.59054725      9.29367000      8.11195017
 Au     14.55902253      9.68900459      7.70694424

