#B3LYP/6-31+G(d) OPT FREQ

439, Energy = -13269.72579206 au

0 1
 Ti      1.57015651      0.72739645      4.67515513
 Ti      1.58219783      3.68950934      4.67811432
 Ti      1.58846899      6.63899769      4.67013128
 Ti      1.58899495     12.54367702      4.68054872
 Ti      1.57194040      9.59459788      4.66924764
 Ti      1.60830781     15.49757638      4.67732157
 Ti      7.86559022      0.72705567      4.73537039
 Ti     14.18881043      0.72299958      4.73978059
 Ti      7.88671723      3.68293543      4.73660887
 Ti     14.20114629      3.66305800      4.72789132
 Ti      7.88237336      6.63600134      4.73156407
 Ti     14.17422827      6.63244925      4.78083488
 Ti      7.87429993     12.55992461      4.73322929
 Ti     14.20162775     12.54408096      4.72092292
 Ti      7.88402774      9.60861799      4.80795422
 Ti     14.16562678      9.59420458      4.74315543
 Ti      7.89212034     15.50286234      4.73527377
 Ti     14.23808695     15.49832407      4.73472130
 Ti      4.71638003      2.20040556      5.31724982
 Ti      4.72354627      5.14271794      5.28046124
 Ti      4.71926440      8.11540504      5.28385136
 Ti      4.72163870     14.02310428      5.31790202
 Ti      4.71925365     11.07660688      5.29220369
 Ti      4.71995914     16.96944017      5.29464826
 Ti     11.03156549      2.16654000      5.32220931
 Ti     17.32758401      2.19547982      5.16033395
 Ti     11.01306842      4.96054988      4.73719790
 Ti     17.32452833      5.13698294      5.13078904
 Ti     11.01801335      8.36644901      4.79315240
 Ti     17.32594438      8.10832519      5.13904084
 Ti     11.04424329     14.08130422      5.28635409
 Ti     17.33131773     14.03293318      5.15171805
 Ti     11.02161283     11.19727070      5.23445946
 Ti     17.31302214     11.08721143      5.13062044
 Ti     11.04388690     16.97525903      5.28546248
 Ti     17.33069194     16.97459694      5.13292979
  O      4.72984901      0.71807341      3.75488840
  O      4.72594866      3.69406101      3.75516551
  O      4.72622763      6.62241492      3.73878177
  O      4.72184767     12.53255898      3.75837179
  O      4.72503931      9.60220497      3.74728237
  O      4.66010897     15.50393648      3.75414955
  O     11.03089694      0.72113808      3.77253858
  O     17.25647760      0.72051424      3.65878146
  O     10.95882385      3.55260896      3.66798989
  O     17.24988025      3.69369695      3.66011491
  O     10.96219547      6.62301900      3.74380882
  O     17.25401614      6.62000650      3.61568469
  O     10.95772073     12.59157550      3.75690830
  O     17.18254882     12.52466795      3.65823361
  O     10.95670939      9.68514898      3.60775706
  O     17.25962288      9.60346766      3.62211511
  O     11.02224838     15.51381780      3.75891083
  O     17.18550084     15.50474304      3.65663067
  O      4.72967060      0.72120496      6.38583752
  O      4.72720268      3.69025513      6.38483276
  O      4.73533500      6.63405425      6.33942372
  O      4.80316697      9.59131208      6.38358478
  O      4.72882333     12.53179762      6.38837029
  O      4.72854053     15.50437330      6.38748166
  O     11.03174846      0.71599233      6.40212971
  O     17.41301988      0.71996141      6.23764235
  O     11.03545712      3.76877930      6.24331604
  O     17.40991940      3.69367311      6.23781379
  O     17.33519540      6.63474389      6.22356649
  O     11.03608287     12.59363980      6.39237717
  O     17.40898660     12.53222405      6.23400133
  O     11.03749658      9.59558891      6.13863493
  O     17.33043329      9.58916476      6.23366362
  O     11.03035822     15.51565074      6.39326192
  O     17.41152289     15.50007299      6.23485588
  O      2.76570678      2.20722485      5.12227534
  O      2.76648069      5.17556825      5.12594534
  O      2.76872106      8.11897377      5.12447442
  O      2.75707194     14.01504011      5.19670483
  O      2.76746751     11.03852551      5.12925743
  O      2.76520761     17.00008775      5.12839813
  O      9.06759637      2.19976408      5.12991948
  O     15.35824578      2.19973458      5.19776929
  O      9.10934201      5.18810656      5.12490832
  O     15.33057523      5.12579757      5.19960777
  O      9.12132846      8.09524911      5.05047773
  O     15.35560328      8.11391288      5.03975717
  O      9.06909011     14.02789632      5.12910796
  O     15.35787084     14.01788566      5.20540871
  O      9.06665610     11.10318335      5.12184382
  O     15.32102336     11.04602254      5.20619245
  O      9.07019703     16.99714516      5.12595118
  O     15.35939748     17.00039122      5.20177811
  O      0.39115419      2.20968327      4.96500174
  O      0.38892388      5.18364385      4.96878325
  O      0.38442291      8.11363382      4.96779087
  O      0.38515887     14.01923275      4.89263677
  O      0.38580111     11.08536901      4.96824912
  O      0.39417345     16.94209620      4.96307317
  O      6.68644924      2.21122846      5.12234683
  O     12.97912324      2.20175878      5.11943112
  O      6.70116119      5.14264836      5.12822486
  O     12.92283956      5.12961311      4.96045524
  O      6.68981441      8.10280408      5.04774833
  O     12.91748850      8.09644593      4.97251619
  O      6.68101514     14.02826700      5.12206965
  O     12.98356676     14.02261185      5.04924271
  O      6.68577001     11.09629260      5.11617970
  O     12.93646716     11.10231866      4.97079710
  O      6.68451307     16.95214327      5.12324913
  O     12.99021469     16.94666048      5.11754156
 Ti      1.58845243      2.20131359      1.48865835
 Ti      1.58495258      5.15969757      1.50282839
 Ti      1.58737011      8.11458184      1.47676558
 Ti      1.56493053     14.02181811      1.50000643
 Ti      1.57867168     11.07391058      1.49921116
 Ti      1.57591615     16.96985521      1.50395052
 Ti      7.87539010      2.20551230      1.50702921
 Ti     14.25997316      2.20893819      1.48440834
 Ti      7.87416977      5.16726813      1.50317948
 Ti     14.25421760      5.17455290      1.52913663
 Ti      7.87527752      8.12553508      1.52996218
 Ti     14.26526366      8.10462997      1.52340171
 Ti      7.87762682     14.01204222      1.49922608
 Ti     14.20413612     14.01572663      1.48843050
 Ti      7.87674401     11.05110596      1.54621379
 Ti     14.25462108     11.05367467      1.50487734
 Ti      7.88174461     16.96722430      1.51762423
 Ti     14.22382756     16.97512304      1.51700060
 Ti      4.72812871      0.72094227      1.93139924
 Ti      4.71989991      3.67570969      1.92597215
 Ti      4.72050746      6.63024703      1.92006376
 Ti      4.71799246     12.55112308      1.92620563
 Ti      4.71843183      9.60076015      1.92188645
 Ti      4.70289985     15.49891915      1.91770910
 Ti     11.04629756      0.72232668      1.94255200
 Ti     17.39474822      0.71747733      1.76355131
 Ti     11.07372190      3.63988945      1.59858551
 Ti     17.39010783      3.67357109      1.76205290
 Ti     11.04269815      6.63162275      1.76933329
 Ti     17.38952443      6.62703199      1.76316029
 Ti     11.02887921     12.56529632      1.92295241
 Ti     17.35020207     12.54723895      1.76592824
 Ti     11.08970963      9.62687500      1.62389541
 Ti     17.40560199      9.59271792      1.76585180
 Ti     11.04931388     15.51102914      1.91080329
 Ti     17.34044770     15.49687214      1.75892801
  O      1.65245015      0.71821967      2.89083027
  O      1.65636128      3.69043280      2.89528719
  O      1.65765705      6.62554249      2.88540229
  O      1.65842798     12.53665234      2.89342040
  O      1.65490775      9.60087338      2.88696370
  O      1.65964012     15.50433694      2.88906903
  O      7.87652150      0.72159818      2.95428552
  O     14.25861823      0.72133853      2.95722002
  O      7.88010247      3.69451935      2.95583795
  O     14.26249678      3.63570075      2.94872086
  O      7.88022566      6.61812511      2.94972665
  O     14.26162293      6.61476771      2.95657974
  O      7.87828072     12.53611133      2.95073946
  O     14.26652336     12.53337080      2.94430473
  O      7.87946384      9.60210710      2.96733181
  O     14.25952988      9.60224511      2.94945261
  O      7.87926966     15.50695032      2.95459507
  O     14.26319690     15.50762564      2.95357408
  O      5.96982626      2.20452277      1.68250788
  O      5.96520027      5.14239872      1.67833730
  O      5.96545741      8.11208255      1.68211836
  O      5.95898357     14.02499730      1.68509135
  O      5.95723480     11.08198853      1.68008103
  O      5.95806447     16.95612841      1.68468842
  O     12.29068111      2.20310027      1.69236693
  O     18.64691385      2.20370649      1.83455147
  O     12.28459664      5.13310785      1.76009649
  O     18.63669901      5.13930635      1.82447811
  O     12.28715462      8.10915866      1.75775715
  O     18.65073884      8.10817947      1.82946717
  O     12.28857311     14.02233289      1.76142369
  O     18.61105399     14.01941139      1.83645399
  O     12.28953166     11.08870663      1.75226521
  O     18.62734601     11.09550443      1.83094883
  O     12.28890066     16.99281241      1.76167819
  O     18.62098696     16.94766182      1.83500516
  O      3.47346675      2.20187569      1.68810726
  O      3.47632516      5.13970764      1.68342431
  O      3.47384670      8.11278994      1.68635112
  O      3.46552309     14.01855594      1.68231690
  O      3.47215868     11.08368709      1.68507063
  O      3.46985427     16.99582936      1.68411948
  O      9.78239320      2.20459951      1.67907626
  O     16.14673189      2.20107232      1.52976808
  O      9.79423454      5.13828253      1.67867503
  O     16.14362205      5.13578290      1.52880527
  O      9.79343257      8.10945567      1.67809840
  O     16.14521225      8.11112446      1.52711417
  O      9.78317199     14.02810863      1.68555575
  O     16.11959297     14.01823369      1.52897969
  O      9.79258852     11.08100701      1.67027525
  O     16.14051759     11.04424413      1.52486526
  O      9.78864338     16.99245396      1.69158034
  O     16.13580827     16.99647745      1.53304260
  O      1.42544324      0.71858720      0.31478118
  O      1.42857552      3.68273480      0.31395055
  O      1.42501428      6.62444990      0.31708665
  O      1.43069895     12.54503499      0.30973646
  O      1.42596677      9.60485174      0.31401507
  O      1.42972030     15.50231628      0.31301906
  O      7.87038113      0.72577834      0.38282588
  O     14.17820245      0.71807142      0.38635572
  O      7.87611307      3.68738306      0.35969417
  O     14.17817309      3.69586197      0.38426890
  O      7.87723411      6.63420149      0.37440214
  O     14.17908641      6.62461634      0.38878123
  O      7.87009408     12.53142131      0.38460937
  O     14.17729052     12.53200522      0.38432309
  O      7.87560521      9.59322955      0.38233291
  O     14.17240857      9.58092552      0.38590156
  O      7.86997220     15.50473490      0.38263556
  O     14.17683680     15.50799789      0.38771766
 Ti      1.21202878      0.71942337     -1.75752175
 Ti      1.21975963      3.67805472     -1.74110369
 Ti      1.22111716      6.63676035     -1.75533981
 Ti      1.22849042     12.55412208     -1.76041713
 Ti      1.22816291      9.59460746     -1.76515972
 Ti      1.22709747     15.51555674     -1.75892704
 Ti      7.81592619      0.70815691     -1.75287415
 Ti     14.38158119      0.71494161     -1.74474248
 Ti      7.80441092      3.67854378     -1.75257935
 Ti     14.37667801      3.68492053     -1.74500898
 Ti      7.81736303      6.63892084     -1.77625323
 Ti     14.39331679      6.64344134     -1.77549943
 Ti      7.83696388     12.55658465     -1.73913837
 Ti     14.41282109     12.55049553     -1.76073407
 Ti      7.83299588      9.59648136     -1.75768511
 Ti     14.39561168      9.59560913     -1.76648022
 Ti      7.81589198     15.51260085     -1.75790650
 Ti     14.40934091     15.51010728     -1.75630241
 Ti      4.52199207      2.19050397     -1.59161227
 Ti      4.52373824      5.15426536     -1.55230957
 Ti      4.52843688      8.11879900     -1.54955447
 Ti      4.52242957     14.02788300     -1.58772473
 Ti      4.53079138     11.07968169     -1.59126437
 Ti      4.51358792     17.00203362     -1.57907569
 Ti     11.08823270      2.18916184     -1.58733264
 Ti     17.65604673      2.19783817     -1.55248141
 Ti     11.08432363      5.15913192     -1.58883355
 Ti     17.66893902      5.16127300     -1.56595475
 Ti     11.08575948      8.12733818     -1.56890861
 Ti     17.68745030      8.12028738     -1.56060303
 Ti     11.11629116     14.03082356     -1.56258642
 Ti     17.68818458     14.03100085     -1.55812337
 Ti     11.09881007     11.08605676     -1.56207204
 Ti     17.69462097     11.07650451     -1.55489374
 Ti     11.10410228     16.98111534     -1.56242844
 Ti     17.67622831     16.99175535     -1.55176830
 Ti      1.30369970      2.19477698     -5.04772806
 Ti      1.31326858      5.12839073     -5.06048784
 Ti      1.30359635      8.09782824     -5.06656126
 Ti      1.29820627     14.00489532     -5.04681690
 Ti      1.30725828     11.07251972     -5.06745828
 Ti      1.18973891     16.97985252     -5.06112726
 Ti      7.88664190      2.17917051     -5.02767245
 Ti     14.46226053      2.18925818     -5.03217217
 Ti      7.90023798      5.11224747     -5.08518336
 Ti     14.48015323      5.11228181     -5.08395591
 Ti      7.89220098      8.10050586     -5.10119657
 Ti     14.47471673      8.10258285     -5.09878726
 Ti      7.90136460     14.00015542     -5.07435167
 Ti     14.48080143     14.05402072     -5.10816406
 Ti      7.90055760     11.08069982     -5.06893140
 Ti     14.49247153     11.08398312     -5.09432306
 Ti      7.79144382     16.97928002     -5.08718989
 Ti     14.46501303     16.99934982     -5.08067258
 Ti      4.50271475      0.67853286     -4.94553993
 Ti      4.59738169      3.66118026     -4.86025121
 Ti      4.58795066      6.64821928     -4.84268471
 Ti      4.60536881     12.54970432     -4.94445295
 Ti      4.55390161      9.59821891     -4.86271729
 Ti      4.49358231     15.51842562     -4.83720531
 Ti     11.07892972      0.67118858     -4.85049841
 Ti     17.67039963      0.74986841     -4.84503371
 Ti     11.18252030      3.65473495     -4.85592691
 Ti     17.76770073      3.67433079     -4.85125511
 Ti     11.15972404      6.63934225     -4.84267761
 Ti     17.67063633      6.63780116     -4.84905131
 Ti     11.17112152     12.54017942     -4.85760201
 Ti     17.76086193     12.53997692     -4.85494921
 Ti     11.16798488      9.57195295     -4.84076381
 Ti     17.76496603      9.55830793     -4.84740701
 Ti     11.15998408     15.52326962     -4.85603701
 Ti     17.68720513     15.52292102     -4.85539531
  O      4.50839834      0.71926992     -0.34010255
  O      4.51180337      3.65916205     -0.33721896
  O      4.51887021      6.64521145     -0.32875073
  O      4.51161413     12.54452216     -0.34718719
  O      4.51399177      9.60207771     -0.33527885
  O      4.50858683     15.51999133     -0.34330149
  O     11.09212688      0.71909360     -0.33393099
  O     17.67306178      0.71960864     -0.32624871
  O     11.08613898      3.66660444     -0.33859022
  O     17.67187301      3.67579707     -0.33129425
  O     11.08687446      6.64625509     -0.33282806
  O     17.67882754      6.64937818     -0.33545907
  O     11.09791677     12.54805853     -0.32934449
  O     17.68737917     12.54486418     -0.32962540
  O     11.08851999      9.59698890     -0.33086711
  O     17.68149603      9.59505575     -0.33078478
  O     11.10075215     15.51551655     -0.32912311
  O     17.68061647     15.52098124     -0.32755178
  O      2.52847458      2.19707998     -1.67679718
  O      2.52832193      5.15681189     -1.59992168
  O      2.53206906      8.11526864     -1.59912302
  O      2.53200488     14.03278665     -1.67630701
  O      2.53590867     11.07698556     -1.67230927
  O      2.52677125     17.00029427     -1.67740184
  O      9.11406052      2.19884860     -1.67864147
  O     15.66027481      2.20128230     -1.60682690
  O      9.11371744      5.15178411     -1.67959564
  O     15.68312353      5.15606203     -1.67034020
  O      9.11588751      8.11405535     -1.67463941
  O     15.69644398      8.11745240     -1.67484631
  O      9.12073918     14.04147867     -1.59814875
  O     15.69885201     14.03604208     -1.59316166
  O      9.11817370     11.07935990     -1.59758737
  O     15.69852913     11.07306338     -1.59923402
  O      9.11734449     16.99008436     -1.59691019
  O     15.68684695     16.99659036     -1.59685671
  O     -0.10072615      2.20175982     -1.60244580
  O     -0.09579378      5.15240906     -1.67670630
  O     -0.07514011      8.11249668     -1.67802483
  O     -0.07997509     14.03686181     -1.67843142
  O     -0.06251463     11.07923762     -1.67655237
  O     -0.08890155     16.99510939     -1.61109102
  O      6.53071700      2.19032508     -1.67172479
  O     13.06451304      2.19708269     -1.67898259
  O      6.52627547      5.15988572     -1.66892877
  O     13.06317794      5.16288646     -1.67592260
  O      6.53688575      8.12127107     -1.67584601
  O     13.06545909      8.11712948     -1.67680757
  O      6.53388118     14.03021317     -1.67708590
  O     13.11354058     14.03292781     -1.68743175
  O      6.54354296     11.07890128     -1.68159552
  O     13.07787612     11.07697217     -1.68239403
  O      6.51999909     16.98999569     -1.67025951
  O     13.08496487     16.98988190     -1.68200143
  O      4.53786602      0.70758103     -2.98954359
  O      4.54403684      3.67864201     -2.95059834
  O      4.54353763      6.63931244     -2.94590286
  O      4.54931403     12.55001857     -3.00414110
  O      4.54615327      9.59563606     -2.95107735
  O      4.54267882     15.51674688     -2.94921836
  O     11.04506561      0.70543087     -2.94757649
  O     17.62852426      0.71755324     -2.94208397
  O     11.12606359      3.67523189     -2.95208329
  O     17.64228330      3.67077609     -2.95163973
  O     11.04922967      6.64422526     -2.95127756
  O     17.63499851      6.63701585     -2.94918907
  O     11.04627626     12.55632668     -2.94631192
  O     17.63298724     12.55424168     -2.94694517
  O     11.04425365      9.59476593     -2.94705195
  O     17.71067856      9.59785626     -2.94637882
  O     11.11407381     15.51567955     -2.94738607
  O     17.62761844     15.51867240     -2.94770046
  O      1.16730567      0.72032719     -3.64614811
  O      1.24142946      3.67323106     -3.64559693
  O      1.25422791      6.63149921     -3.64836590
  O      1.24573761     12.55074781     -3.65661944
  O      1.24698371      9.58996293     -3.65482874
  O      1.24079256     15.51415465     -3.64850943
  O      7.84755798      0.65822843     -3.65317225
  O     14.42834009      0.70876926     -3.65114366
  O      7.75772666      3.67282632     -3.65992126
  O     14.41503644      3.67239459     -3.65396500
  O      7.84214381      6.64068554     -3.67133771
  O     14.41796467      6.63181367     -3.66446899
  O      7.92675950     12.55284276     -3.66165811
  O     14.51267915     12.55925359     -3.66583031
  O      7.92393007      9.59868971     -3.66747811
  O     14.42720808      9.60368487     -3.66342736
  O      7.85000805     15.50868029     -3.66170648
  O     14.51404225     15.51566398     -3.66595195
  O      5.75671982      2.16324301     -5.01435958
  O      5.75975303      5.15448081     -5.01530183
  O      5.76556015      8.14428322     -5.01539114
  O      5.75653567     14.03557632     -5.01636649
  O      5.78411909     11.08130282     -5.09072135
  O      5.76834411     16.97608362     -5.06744863
  O     12.34626893      2.16631666     -5.01136403
  O     18.92693223      2.16872457     -5.01182269
  O     12.35319463      5.15333855     -5.01211275
  O     18.92479343      5.15702773     -5.01288125
  O     12.38480073      8.10072512     -4.98445473
  O     18.93235633      8.05623231     -5.01259674
  O     12.35286853     14.03080392     -5.00936198
  O     18.92498483     14.03379252     -5.01470270
  O     12.37642473     11.06886562     -4.98555887
  O     18.93427013     11.04978872     -5.01564865
  O     12.37237753     16.98851532     -4.98794386
  O     18.92340113     17.02074082     -5.01352979
  O      3.22044698      2.16860736     -5.01483320
  O      3.22535877      5.15561492     -5.01428870
  O      3.22541749      8.14656077     -5.01556500
  O      3.21913862     14.03265332     -5.01720782
  O      3.22122825     11.05180552     -5.01514675
  O      3.19055941     16.98232112     -4.99293827
  O      9.80662525      2.17046481     -5.01076665
  O     16.39100653      2.17423529     -5.01482192
  O      9.80898175      5.15497252     -5.01507870
  O     16.39253663      5.14959923     -5.01645290
  O      9.91779221      8.13950322     -5.26757440
  O     16.39480123      8.14363750     -5.01513968
  O      9.93210408     14.03336686     -5.19536888
  O     16.50904620     14.03254601     -5.20296988
  O      9.94031990     11.07440600     -5.19705723
  O     16.52457610     11.06721736     -5.19701748
  O      9.89109481     16.97561302     -5.19278317
  O     16.48915131     16.99946280     -5.19553072
  O      1.25088733      0.71851802     -6.18411049
  O      1.24511498      3.66782190     -6.18930110
  O      1.25127594      6.62532430     -6.18717196
  O      1.25087407     12.55127117     -6.19242414
  O      1.24291261      9.58949157     -6.18831295
  O      1.24441005     15.50623474     -6.18118684
  O      7.75313584      0.71934483     -6.18526678
  O     14.41859379      0.72195880     -6.18694327
  O      7.83046563      3.64396538     -6.19141794
  O     14.34234357      3.65447390     -6.19246203
  O      7.75205245      6.62230557     -6.19408800
  O     14.42223371      6.61949175     -6.19834840
  O      7.75339785     12.55076102     -6.19457837
  O     14.33862573     12.56087697     -6.19719842
  O      7.82727799      9.60001139     -6.19093921
  O     14.41597948      9.59571130     -6.19876855
  O      7.75657171     15.49529594     -6.18846092
  O     14.33832771     15.52441085     -6.20041601
 Au     12.60668204     10.89350050      8.61482865
 Au     11.38469892      5.71165308      7.50606315
 Au     14.64715557      9.21449889      7.75518026
 Au      9.38939036      7.48573665      7.94704280
 Au     12.13476925      8.18194018      8.29238174
 Au      9.96073153     10.11823730      8.54942290
 Au     14.24943901      6.49442694      7.63331913
 Au      7.46205543      9.43058317      7.69314193

