439
Energy = -13269.72634099 au
 Ti      1.56928404      0.72784543      4.67486272
 Ti      1.58461945      3.69165452      4.67764978
 Ti      1.58064511      6.64257352      4.66877347
 Ti      1.57821382     12.55662030      4.67451108
 Ti      1.57552578      9.59840512      4.66997103
 Ti      1.61346765     15.50330658      4.67866500
 Ti      7.86259491      0.72449720      4.73119676
 Ti     14.19087482      0.72585190      4.74387626
 Ti      7.87703670      3.67279748      4.72272142
 Ti     14.19600597      3.67456027      4.74876973
 Ti      7.89632810      6.64002253      4.75648201
 Ti     14.18570868      6.63267416      4.74340092
 Ti      7.85752386     12.54198327      4.80029737
 Ti     14.22430896     12.54454032      4.73470856
 Ti      7.88635433      9.60110884      4.74672730
 Ti     14.18338622      9.59895782      4.74152983
 Ti      7.90837123     15.50229771      4.73362405
 Ti     14.22703679     15.49921648      4.73592411
 Ti      4.71684396      2.20557060      5.31418378
 Ti      4.72514698      5.15089256      5.28098106
 Ti      4.71974168      8.12288466      5.21627732
 Ti      4.72056608     14.05998916      5.27679963
 Ti      4.70246550     11.08721263      5.20808286
 Ti      4.72690010     16.98223770      5.29614864
 Ti     11.02653019      2.13883679      5.29187878
 Ti     17.33087503      2.19379042      5.15913390
 Ti     11.05335601      4.93700763      4.84709798
 Ti     17.32328025      5.14431160      5.13116194
 Ti     11.02877884      8.36494460      4.81331160
 Ti     17.31827502      8.11591887      5.15606373
 Ti     11.04271191     14.07388344      5.28750620
 Ti     17.33341165     14.02539724      5.15513138
 Ti     11.03840150     11.18255019      5.25967916
 Ti     17.32615391     11.07188112      5.13850208
 Ti     11.04110396     16.96783305      5.28701929
 Ti     17.32893680     16.96733519      5.13296226
  O      4.72899713      0.71962775      3.75654112
  O      4.72576116      3.69846238      3.75657832
  O      4.72326856      6.62207935      3.73754700
  O      4.71541607     12.58918389      3.74255739
  O      4.65279053      9.60351598      3.68825350
  O      4.65716691     15.50778734      3.75341467
  O     11.03112488      0.71897825      3.76593454
  O     17.25577297      0.72210988      3.65573464
  O     11.03454745      3.61324235      3.67161731
  O     17.25222708      3.69614165      3.64164344
  O     11.02701816      6.61979407      3.75871163
  O     17.24905057      6.62357297      3.61923544
  O     11.02590173     12.53308244      3.75651185
  O     17.18588665     12.52833265      3.65118194
  O     11.03003387      9.68476018      3.62093047
  O     17.25185930      9.59448449      3.64677904
  O     11.02193656     15.51110779      3.75859905
  O     17.18486358     15.50718133      3.65484575
  O      4.72883325      0.72838268      6.38777553
  O      4.72800289      3.69832708      6.38575337
  O      4.80484680      6.67573385      6.33312181
  O      4.80947520      9.60342725      6.31994190
  O      4.80351581     12.53264118      6.33291077
  O      4.72699402     15.50983778      6.38549775
  O     11.03248126      0.70952315      6.39872009
  O     17.41236940      0.72121279      6.23530953
  O     11.02611284      3.70648993      6.24637762
  O     17.40965447      3.69272867      6.23238442
  O     17.34393210      6.62872058      6.22323617
  O     11.03393232     12.59626725      6.39725176
  O     17.41184701     12.53610767      6.23321848
  O     11.03078955      9.59543346      6.16138470
  O     17.40882398      9.59120657      6.23208393
  O     11.03118074     15.51031994      6.39310146
  O     17.41129839     15.50049780      6.23518309
  O      2.76611112      2.20857937      5.12223568
  O      2.77183596      5.18319566      5.13104999
  O      2.76976405      8.11901175      5.12640064
  O      2.75713904     14.01735634      5.19985444
  O      2.76662058     11.07987492      5.12981347
  O      2.76612449     17.00263764      5.12844984
  O      9.06556429      2.19972334      5.12362466
  O     15.35716537      2.20915350      5.19404403
  O      9.11562311      5.13571488      5.04096093
  O     15.32715294      5.14268094      5.19930939
  O      9.12767606      8.09695242      5.04940984
  O     15.31405480      8.11428425      5.20358832
  O      9.07519104     14.02079102      5.12115809
  O     15.35968919     14.01889629      5.20623242
  O      9.06359913     11.09920029      5.11755673
  O     15.35653987     11.03538363      5.19963983
  O      9.07292670     17.00225584      5.12799908
  O     15.35875720     17.00058377      5.20162171
  O      0.39252658      2.21208027      4.96410946
  O      0.39078287      5.18196881      4.96699096
  O      0.38829524      8.11556256      4.96460629
  O      0.38396006     14.02577870      4.89283695
  O      0.39309862     11.08926947      4.96327167
  O      0.39435380     16.94302830      4.96309109
  O      6.68056548      2.20547049      5.12357239
  O     12.98514377      2.20224047      5.11807644
  O      6.69997433      5.13273300      5.12580567
  O     12.93510948      5.19551737      5.12083279
  O      6.68559661      8.11707138      4.95822628
  O     12.92688885      8.10194501      5.04517106
  O      6.68025615     14.08568261      5.11448233
  O     12.98756909     14.02081041      5.04796501
  O      6.64086361     11.03071140      4.94009652
  O     12.99099929     11.09886120      5.11835770
  O      6.68549588     16.95346895      5.12306383
  O     12.99028532     16.94850132      5.11662054
 Ti      1.58583823      2.19972719      1.48741360
 Ti      1.58427542      5.16000081      1.49895785
 Ti      1.58664848      8.11317849      1.47683583
 Ti      1.56109993     14.02167271      1.49963050
 Ti      1.57695923     11.07521081      1.49908178
 Ti      1.57373053     16.96840324      1.50459220
 Ti      7.87586783      2.20934331      1.50097015
 Ti     14.25785774      2.20188091      1.50321546
 Ti      7.87898706      5.17548955      1.51516015
 Ti     14.25213400      5.16080775      1.51426027
 Ti      7.88330567      8.12479882      1.51462106
 Ti     14.25804330      8.11299365      1.50059505
 Ti      7.88089598     14.00810285      1.52559984
 Ti     14.19856732     14.02068455      1.49425343
 Ti      7.87951160     11.07486092      1.55168585
 Ti     14.25364843     11.06989823      1.50730802
 Ti      7.88184373     16.96204884      1.51192919
 Ti     14.22165540     16.97434359      1.51498981
 Ti      4.72895249      0.72582603      1.93045841
 Ti      4.71521547      3.68294063      1.92195871
 Ti      4.72873637      6.63664263      1.91107152
 Ti      4.71978189     12.56044368      1.90827965
 Ti      4.71400774      9.60463872      1.86332554
 Ti      4.69992675     15.50396408      1.90649970
 Ti     11.04367979      0.72341392      1.92971584
 Ti     17.39468622      0.71790706      1.76448005
 Ti     11.07774715      3.65020560      1.60471418
 Ti     17.38817313      3.67646980      1.75969625
 Ti     11.04634549      6.62503010      1.83592488
 Ti     17.38270248      6.63070550      1.76032287
 Ti     11.03137484     12.54769045      1.92314816
 Ti     17.34634304     12.54875511      1.77034102
 Ti     11.09525113      9.61234193      1.61702801
 Ti     17.40520024      9.59303187      1.76965451
 Ti     11.04880069     15.50715624      1.90977751
 Ti     17.33703306     15.49682832      1.75992055
  O      1.65244133      0.71841015      2.89102208
  O      1.65582725      3.69481468      2.89368673
  O      1.65439455      6.62514698      2.88501996
  O      1.65693770     12.53927081      2.88864011
  O      1.65457170      9.60209898      2.88956885
  O      1.65979718     15.50465852      2.88944202
  O      7.87568730      0.72087424      2.95256432
  O     14.25863009      0.72629024      2.95832397
  O      7.87728178      3.68855216      2.94501219
  O     14.25784039      3.69084940      2.96256729
  O      7.88103095      6.61755576      2.95181819
  O     14.26117854      6.62201719      2.95908910
  O      7.87934794     12.54106286      2.96426949
  O     14.26133988     12.52646748      2.95189086
  O      7.88887289      9.59654450      2.94562267
  O     14.25738277      9.60122859      2.95766225
  O      7.88041620     15.50846909      2.95100885
  O     14.26246748     15.50897415      2.95389080
  O      5.96471526      2.20748290      1.68265537
  O      5.96353589      5.14245502      1.67754743
  O      5.96948379      8.11419913      1.67977225
  O      5.95583023     14.03036271      1.68093673
  O      5.95785620     11.08698303      1.67924215
  O      5.95329775     16.95940495      1.68428409
  O     12.29312762      2.20351806      1.69350670
  O     18.64692894      2.20403914      1.83330073
  O     12.28936249      5.13947635      1.75309753
  O     18.63135003      5.14878189      1.77526352
  O     12.29367474      8.10740969      1.75621965
  O     18.64723281      8.11034274      1.83072962
  O     12.28813002     14.01997080      1.76181934
  O     18.60909961     14.02056733      1.83538701
  O     12.29154264     11.08948838      1.68846279
  O     18.62190854     11.09249781      1.83344909
  O     12.28965018     16.99247295      1.76140146
  O     18.61918467     16.94766578      1.83481450
  O      3.47253004      2.20431907      1.68849228
  O      3.47735040      5.16796368      1.68297685
  O      3.47093116      8.10925435      1.68069189
  O      3.46366957     14.02175684      1.67974776
  O      3.46831688     11.09488963      1.67907945
  O      3.46856870     16.99778406      1.68365076
  O      9.78553874      2.20817045      1.68273986
  O     16.14314297      2.20249347      1.53115322
  O      9.79857581      5.13957520      1.68112276
  O     16.14015569      5.14328610      1.52903615
  O      9.80259844      8.10891906      1.68248672
  O     16.14322877      8.11382155      1.52892616
  O      9.78863171     14.02250821      1.68904827
  O     16.11131912     14.01879776      1.53074523
  O      9.79695610     11.04867311      1.67756034
  O     16.14031714     11.04058855      1.52618890
  O      9.78985481     16.99138807      1.69055227
  O     16.13330777     16.99735242      1.53269307
  O      1.42547994      0.71824548      0.31473669
  O      1.43208378      3.68084484      0.31319811
  O      1.42616950      6.62783493      0.31550087
  O      1.42884394     12.54471095      0.30910887
  O      1.42588255      9.60515816      0.31470808
  O      1.42923108     15.50319483      0.31276324
  O      7.87008177      0.72552387      0.38081250
  O     14.17819952      0.72447648      0.39018476
  O      7.87606722      3.69050225      0.36265340
  O     14.17881187      3.69150337      0.38705362
  O      7.87794542      6.63127887      0.36746643
  O     14.18005812      6.62791434      0.38712610
  O      7.87242680     12.53558968      0.38606329
  O     14.18011969     12.53598468      0.38469704
  O      7.87478615      9.59838019      0.38270254
  O     14.17610306      9.58926561      0.38562142
  O      7.87027672     15.50092205      0.38574442
  O     14.17605057     15.50806461      0.38790533
 Ti      1.21202878      0.71942337     -1.75752175
 Ti      1.21975963      3.67805472     -1.74110369
 Ti      1.22111716      6.63676035     -1.75533981
 Ti      1.22849042     12.55412208     -1.76041713
 Ti      1.22816291      9.59460746     -1.76515972
 Ti      1.22709747     15.51555674     -1.75892704
 Ti      7.81592619      0.70815691     -1.75287415
 Ti     14.38158119      0.71494161     -1.74474248
 Ti      7.80441092      3.67854378     -1.75257935
 Ti     14.37667801      3.68492053     -1.74500898
 Ti      7.81736303      6.63892084     -1.77625323
 Ti     14.39331679      6.64344134     -1.77549943
 Ti      7.83696388     12.55658465     -1.73913837
 Ti     14.41282109     12.55049553     -1.76073407
 Ti      7.83299588      9.59648136     -1.75768511
 Ti     14.39561168      9.59560913     -1.76648022
 Ti      7.81589198     15.51260085     -1.75790650
 Ti     14.40934091     15.51010728     -1.75630241
 Ti      4.52199207      2.19050397     -1.59161227
 Ti      4.52373824      5.15426536     -1.55230957
 Ti      4.52843688      8.11879900     -1.54955447
 Ti      4.52242957     14.02788300     -1.58772473
 Ti      4.53079138     11.07968169     -1.59126437
 Ti      4.51358792     17.00203362     -1.57907569
 Ti     11.08823270      2.18916184     -1.58733264
 Ti     17.65604673      2.19783817     -1.55248141
 Ti     11.08432363      5.15913192     -1.58883355
 Ti     17.66893902      5.16127300     -1.56595475
 Ti     11.08575948      8.12733818     -1.56890861
 Ti     17.68745030      8.12028738     -1.56060303
 Ti     11.11629116     14.03082356     -1.56258642
 Ti     17.68818458     14.03100085     -1.55812337
 Ti     11.09881007     11.08605676     -1.56207204
 Ti     17.69462097     11.07650451     -1.55489374
 Ti     11.10410228     16.98111534     -1.56242844
 Ti     17.67622831     16.99175535     -1.55176830
 Ti      1.30369970      2.19477698     -5.04772806
 Ti      1.31326858      5.12839073     -5.06048784
 Ti      1.30359635      8.09782824     -5.06656126
 Ti      1.29820627     14.00489532     -5.04681690
 Ti      1.30725828     11.07251972     -5.06745828
 Ti      1.18973891     16.97985252     -5.06112726
 Ti      7.88664190      2.17917051     -5.02767245
 Ti     14.46226053      2.18925818     -5.03217217
 Ti      7.90023798      5.11224747     -5.08518336
 Ti     14.48015323      5.11228181     -5.08395591
 Ti      7.89220098      8.10050586     -5.10119657
 Ti     14.47471673      8.10258285     -5.09878726
 Ti      7.90136460     14.00015542     -5.07435167
 Ti     14.48080143     14.05402072     -5.10816406
 Ti      7.90055760     11.08069982     -5.06893140
 Ti     14.49247153     11.08398312     -5.09432306
 Ti      7.79144382     16.97928002     -5.08718989
 Ti     14.46501303     16.99934982     -5.08067258
 Ti      4.50271475      0.67853286     -4.94553993
 Ti      4.59738169      3.66118026     -4.86025121
 Ti      4.58795066      6.64821928     -4.84268471
 Ti      4.60536881     12.54970432     -4.94445295
 Ti      4.55390161      9.59821891     -4.86271729
 Ti      4.49358231     15.51842562     -4.83720531
 Ti     11.07892972      0.67118858     -4.85049841
 Ti     17.67039963      0.74986841     -4.84503371
 Ti     11.18252030      3.65473495     -4.85592691
 Ti     17.76770073      3.67433079     -4.85125511
 Ti     11.15972404      6.63934225     -4.84267761
 Ti     17.67063633      6.63780116     -4.84905131
 Ti     11.17112152     12.54017942     -4.85760201
 Ti     17.76086193     12.53997692     -4.85494921
 Ti     11.16798488      9.57195295     -4.84076381
 Ti     17.76496603      9.55830793     -4.84740701
 Ti     11.15998408     15.52326962     -4.85603701
 Ti     17.68720513     15.52292102     -4.85539531
  O      4.50839834      0.71926992     -0.34010255
  O      4.51180337      3.65916205     -0.33721896
  O      4.51887021      6.64521145     -0.32875073
  O      4.51161413     12.54452216     -0.34718719
  O      4.51399177      9.60207771     -0.33527885
  O      4.50858683     15.51999133     -0.34330149
  O     11.09212688      0.71909360     -0.33393099
  O     17.67306178      0.71960864     -0.32624871
  O     11.08613898      3.66660444     -0.33859022
  O     17.67187301      3.67579707     -0.33129425
  O     11.08687446      6.64625509     -0.33282806
  O     17.67882754      6.64937818     -0.33545907
  O     11.09791677     12.54805853     -0.32934449
  O     17.68737917     12.54486418     -0.32962540
  O     11.08851999      9.59698890     -0.33086711
  O     17.68149603      9.59505575     -0.33078478
  O     11.10075215     15.51551655     -0.32912311
  O     17.68061647     15.52098124     -0.32755178
  O      2.52847458      2.19707998     -1.67679718
  O      2.52832193      5.15681189     -1.59992168
  O      2.53206906      8.11526864     -1.59912302
  O      2.53200488     14.03278665     -1.67630701
  O      2.53590867     11.07698556     -1.67230927
  O      2.52677125     17.00029427     -1.67740184
  O      9.11406052      2.19884860     -1.67864147
  O     15.66027481      2.20128230     -1.60682690
  O      9.11371744      5.15178411     -1.67959564
  O     15.68312353      5.15606203     -1.67034020
  O      9.11588751      8.11405535     -1.67463941
  O     15.69644398      8.11745240     -1.67484631
  O      9.12073918     14.04147867     -1.59814875
  O     15.69885201     14.03604208     -1.59316166
  O      9.11817370     11.07935990     -1.59758737
  O     15.69852913     11.07306338     -1.59923402
  O      9.11734449     16.99008436     -1.59691019
  O     15.68684695     16.99659036     -1.59685671
  O     -0.10072615      2.20175982     -1.60244580
  O     -0.09579378      5.15240906     -1.67670630
  O     -0.07514011      8.11249668     -1.67802483
  O     -0.07997509     14.03686181     -1.67843142
  O     -0.06251463     11.07923762     -1.67655237
  O     -0.08890155     16.99510939     -1.61109102
  O      6.53071700      2.19032508     -1.67172479
  O     13.06451304      2.19708269     -1.67898259
  O      6.52627547      5.15988572     -1.66892877
  O     13.06317794      5.16288646     -1.67592260
  O      6.53688575      8.12127107     -1.67584601
  O     13.06545909      8.11712948     -1.67680757
  O      6.53388118     14.03021317     -1.67708590
  O     13.11354058     14.03292781     -1.68743175
  O      6.54354296     11.07890128     -1.68159552
  O     13.07787612     11.07697217     -1.68239403
  O      6.51999909     16.98999569     -1.67025951
  O     13.08496487     16.98988190     -1.68200143
  O      4.53786602      0.70758103     -2.98954359
  O      4.54403684      3.67864201     -2.95059834
  O      4.54353763      6.63931244     -2.94590286
  O      4.54931403     12.55001857     -3.00414110
  O      4.54615327      9.59563606     -2.95107735
  O      4.54267882     15.51674688     -2.94921836
  O     11.04506561      0.70543087     -2.94757649
  O     17.62852426      0.71755324     -2.94208397
  O     11.12606359      3.67523189     -2.95208329
  O     17.64228330      3.67077609     -2.95163973
  O     11.04922967      6.64422526     -2.95127756
  O     17.63499851      6.63701585     -2.94918907
  O     11.04627626     12.55632668     -2.94631192
  O     17.63298724     12.55424168     -2.94694517
  O     11.04425365      9.59476593     -2.94705195
  O     17.71067856      9.59785626     -2.94637882
  O     11.11407381     15.51567955     -2.94738607
  O     17.62761844     15.51867240     -2.94770046
  O      1.16730567      0.72032719     -3.64614811
  O      1.24142946      3.67323106     -3.64559693
  O      1.25422791      6.63149921     -3.64836590
  O      1.24573761     12.55074781     -3.65661944
  O      1.24698371      9.58996293     -3.65482874
  O      1.24079256     15.51415465     -3.64850943
  O      7.84755798      0.65822843     -3.65317225
  O     14.42834009      0.70876926     -3.65114366
  O      7.75772666      3.67282632     -3.65992126
  O     14.41503644      3.67239459     -3.65396500
  O      7.84214381      6.64068554     -3.67133771
  O     14.41796467      6.63181367     -3.66446899
  O      7.92675950     12.55284276     -3.66165811
  O     14.51267915     12.55925359     -3.66583031
  O      7.92393007      9.59868971     -3.66747811
  O     14.42720808      9.60368487     -3.66342736
  O      7.85000805     15.50868029     -3.66170648
  O     14.51404225     15.51566398     -3.66595195
  O      5.75671982      2.16324301     -5.01435958
  O      5.75975303      5.15448081     -5.01530183
  O      5.76556015      8.14428322     -5.01539114
  O      5.75653567     14.03557632     -5.01636649
  O      5.78411909     11.08130282     -5.09072135
  O      5.76834411     16.97608362     -5.06744863
  O     12.34626893      2.16631666     -5.01136403
  O     18.92693223      2.16872457     -5.01182269
  O     12.35319463      5.15333855     -5.01211275
  O     18.92479343      5.15702773     -5.01288125
  O     12.38480073      8.10072512     -4.98445473
  O     18.93235633      8.05623231     -5.01259674
  O     12.35286853     14.03080392     -5.00936198
  O     18.92498483     14.03379252     -5.01470270
  O     12.37642473     11.06886562     -4.98555887
  O     18.93427013     11.04978872     -5.01564865
  O     12.37237753     16.98851532     -4.98794386
  O     18.92340113     17.02074082     -5.01352979
  O      3.22044698      2.16860736     -5.01483320
  O      3.22535877      5.15561492     -5.01428870
  O      3.22541749      8.14656077     -5.01556500
  O      3.21913862     14.03265332     -5.01720782
  O      3.22122825     11.05180552     -5.01514675
  O      3.19055941     16.98232112     -4.99293827
  O      9.80662525      2.17046481     -5.01076665
  O     16.39100653      2.17423529     -5.01482192
  O      9.80898175      5.15497252     -5.01507870
  O     16.39253663      5.14959923     -5.01645290
  O      9.91779221      8.13950322     -5.26757440
  O     16.39480123      8.14363750     -5.01513968
  O      9.93210408     14.03336686     -5.19536888
  O     16.50904620     14.03254601     -5.20296988
  O      9.94031990     11.07440600     -5.19705723
  O     16.52457610     11.06721736     -5.19701748
  O      9.89109481     16.97561302     -5.19278317
  O     16.48915131     16.99946280     -5.19553072
  O      1.25088733      0.71851802     -6.18411049
  O      1.24511498      3.66782190     -6.18930110
  O      1.25127594      6.62532430     -6.18717196
  O      1.25087407     12.55127117     -6.19242414
  O      1.24291261      9.58949157     -6.18831295
  O      1.24441005     15.50623474     -6.18118684
  O      7.75313584      0.71934483     -6.18526678
  O     14.41859379      0.72195880     -6.18694327
  O      7.83046563      3.64396538     -6.19141794
  O     14.34234357      3.65447390     -6.19246203
  O      7.75205245      6.62230557     -6.19408800
  O     14.42223371      6.61949175     -6.19834840
  O      7.75339785     12.55076102     -6.19457837
  O     14.33862573     12.56087697     -6.19719842
  O      7.82727799      9.60001139     -6.19093921
  O     14.41597948      9.59571130     -6.19876855
  O      7.75657171     15.49529594     -6.18846092
  O     14.33832771     15.52441085     -6.20041601
 Au      7.09101848     12.37539083      7.63478122
 Au     11.62009620      9.89225184      9.16773274
 Au      9.51616436      8.36022733      8.32139262
 Au      7.30463607      6.85777605      7.67688470
 Au      9.97576148      5.77028363      7.55749817
 Au     12.11488328      7.36087515      7.95595795
 Au      9.35182964     11.18549021      8.40334361
 Au      7.10056349      9.61395433      7.71947173
