#B3LYP/6-31+G(d) OPT FREQ

439, Energy = -13269.72613308 au

0 1
 Ti      1.57372561      0.72602493      4.67668547
 Ti      1.57078801      3.68468665      4.67860384
 Ti      1.59221798      6.62966099      4.67442568
 Ti      1.61005799     12.54223995      4.68729360
 Ti      1.56724915      9.59040714      4.67890647
 Ti      1.59950301     15.49704832      4.67691897
 Ti      7.86530643      0.72399088      4.73310465
 Ti     14.19023616      0.72461657      4.74348160
 Ti      7.87602778      3.67467844      4.72522547
 Ti     14.19343505      3.67224675      4.74432046
 Ti      7.92009338      6.63987775      4.79423759
 Ti     14.21263657      6.62812099      4.74064657
 Ti      7.88086921     12.55195666      4.73195272
 Ti     14.23004198     12.54157341      4.73480665
 Ti      7.88121250      9.60103077      4.77708453
 Ti     14.16562397      9.59408390      4.80676717
 Ti      7.89200633     15.49860426      4.73508968
 Ti     14.22899491     15.49787505      4.73380402
 Ti      4.71567451      2.18958117      5.31618287
 Ti      4.72430269      5.12150020      5.27056076
 Ti      4.72199679      8.08308295      5.25346148
 Ti      4.72204499     14.01662779      5.31308770
 Ti      4.72043139     11.05351073      5.31325194
 Ti      4.71957135     16.96147133      5.29295406
 Ti     11.02701950      2.16840548      5.32001316
 Ti     17.32450458      2.19413238      5.16353454
 Ti     11.05101387      4.95673204      4.74675443
 Ti     17.30490772      5.14608290      5.14397156
 Ti     11.03146865      8.36045263      4.79916222
 Ti     17.32171784      8.11019056      5.16822245
 Ti     11.05145001     14.08062333      5.28868018
 Ti     17.33651728     14.02551564      5.15391908
 Ti     11.03751677     11.19147536      5.24307071
 Ti     17.33088416     11.07383196      5.13612066
 Ti     11.04185195     16.97870452      5.28540920
 Ti     17.32782436     16.96957841      5.13304407
  O      4.72964127      0.71778269      3.75532624
  O      4.72676186      3.69279306      3.75434162
  O      4.72101466      6.61918650      3.73476220
  O      4.65876502     12.52580893      3.76144952
  O      4.72034620      9.60600443      3.75256362
  O      4.66052357     15.50255127      3.75472703
  O     11.03037879      0.71953825      3.77199693
  O     17.25550481      0.72038467      3.65760980
  O     11.03146500      3.55179236      3.66872119
  O     17.18859024      3.69793573      3.65675666
  O     10.95679210      6.62311237      3.74370853
  O     17.18945034      6.62399854      3.65599089
  O     11.02402993     12.53407871      3.75340397
  O     17.18477162     12.52819235      3.64926498
  O     11.02795276      9.68449625      3.61207580
  O     17.25650865      9.59592020      3.65072683
  O     11.02235779     15.51061844      3.75841124
  O     17.18609625     15.50620443      3.65390351
  O      4.72907235      0.71707492      6.38659241
  O      4.72921606      3.68562169      6.38623449
  O      4.73986567      6.62353185      6.33358288
  O      4.88000317      9.54043712      6.39464948
  O      4.73258376     12.52494154      6.38866096
  O      4.72824938     15.49882535      6.38526879
  O     11.03127077      0.71536436      6.40161621
  O     17.41134881      0.71919364      6.23703514
  O     11.02581889      3.76766352      6.24323306
  O     17.41163157      3.68990787      6.23658138
  O     17.34485254      6.62727662      6.23649809
  O     11.03241379     12.59532322      6.39334507
  O     17.41066989     12.53559853      6.23332603
  O     11.03503298      9.58940741      6.14100279
  O     17.40441524      9.59608406      6.23944642
  O     11.03130795     15.51342803      6.39234403
  O     17.41245301     15.49906039      6.23427086
  O      2.76458882      2.20526771      5.12211894
  O      2.76527904      5.13787874      5.12707612
  O      2.77487471      8.11676302      5.12668557
  O      2.75783014     14.01863021      5.19989878
  O      2.76625514     11.02836482      5.19991583
  O      2.76501803     16.99897178      5.12832484
  O      9.06814385      2.19822579      5.12642744
  O     15.35368990      2.20409623      5.19635487
  O      9.12164053      5.12724854      5.04010577
  O     15.29866221      5.12803243      5.27621883
  O      9.12552244      8.10798335      5.11032467
  O     15.33704074      8.11139094      5.19516538
  O      9.07348573     14.02349680      5.12491268
  O     15.36069018     14.01914335      5.20623935
  O      9.07090699     11.09857000      5.12058373
  O     15.35971745     11.03844312      5.19541289
  O      9.07027173     16.99379562      5.12639941
  O     15.35804367     17.00048233      5.20144388
  O      0.38742729      2.20733078      4.96383129
  O      0.38276404      5.18417667      4.96441408
  O      0.38938732      8.10661007      4.96650259
  O      0.38903029     14.01457644      4.89132284
  O      0.39481428     11.09405265      4.96160970
  O      0.39345721     16.94268326      4.96332519
  O      6.68282081      2.20293712      5.12387124
  O     12.97998459      2.20379304      5.12145419
  O      6.69891932      5.12850293      5.12372610
  O     12.92503434      5.19437295      5.04241769
  O      6.68785525      8.10671229      4.96154811
  O     12.91810002      8.04216324      4.97220018
  O      6.68070486     14.02356931      5.12068069
  O     12.98845684     14.02078314      5.04833465
  O      6.68725744     11.09234409      5.11743923
  O     12.98656376     11.10609235      5.11186372
  O      6.68462979     16.94738220      5.12311595
  O     12.98905946     16.94857266      5.11706421
 Ti      1.57666767      2.20203063      1.49655563
 Ti      1.57671756      5.15700670      1.50531153
 Ti      1.59180793      8.11533109      1.47646770
 Ti      1.55980924     14.02078068      1.50047308
 Ti      1.57491112     11.07206298      1.50462640
 Ti      1.57521572     16.96956694      1.50217141
 Ti      7.87353970      2.21738571      1.49705054
 Ti     14.25390301      2.20419314      1.50118869
 Ti      7.87398230      5.17823680      1.52941178
 Ti     14.24678419      5.17455616      1.50840382
 Ti      7.87831911      8.10405046      1.54307876
 Ti     14.26236027      8.12284046      1.52328614
 Ti      7.87147473     14.01556891      1.50704493
 Ti     14.20131957     14.01074589      1.48503124
 Ti      7.87514753     11.04768475      1.52352449
 Ti     14.25541253     11.05289916      1.52670927
 Ti      7.88129297     16.97465604      1.51667025
 Ti     14.22473690     16.97133021      1.51512498
 Ti      4.72666340      0.72026463      1.92999103
 Ti      4.71430848      3.67177915      1.92062326
 Ti      4.72048376      6.62558273      1.90971863
 Ti      4.69622704     12.54217214      1.92759221
 Ti      4.72738668      9.59542593      1.92479702
 Ti      4.70134477     15.49660286      1.91603653
 Ti     11.04595523      0.71986336      1.94090987
 Ti     17.39627118      0.71889145      1.76518355
 Ti     11.07162988      3.63995938      1.59922024
 Ti     17.35730713      3.68389980      1.76919602
 Ti     11.04189266      6.62914797      1.77814573
 Ti     17.38911348      6.63592065      1.77960970
 Ti     11.02941620     12.55282406      1.91480920
 Ti     17.34651925     12.54925290      1.76952121
 Ti     11.09595921      9.61843572      1.61990221
 Ti     17.40332524      9.59396969      1.77759509
 Ti     11.04920843     15.50680430      1.91106979
 Ti     17.33747284     15.49811942      1.75994946
  O      1.65049793      0.71918169      2.89109392
  O      1.65334583      3.68973208      2.89310344
  O      1.65726664      6.62417856      2.88939920
  O      1.66220194     12.53287050      2.89628575
  O      1.65387662      9.59955304      2.89506922
  O      1.65942248     15.50433180      2.88881538
  O      7.87604561      0.71995034      2.95373325
  O     14.25789463      0.72688221      2.95837812
  O      7.87703085      3.68662049      2.94503091
  O     14.25991638      3.69248347      2.95971109
  O      7.88280778      6.61725081      2.95925751
  O     14.26513003      6.61846448      2.95478115
  O      7.87906715     12.53282355      2.95082039
  O     14.26156663     12.52721007      2.95220507
  O      7.88215318      9.60419533      2.96497764
  O     14.25524031      9.60014046      2.97253580
  O      7.87861798     15.50551085      2.95483098
  O     14.26234184     15.50841709      2.95363850
  O      5.96652093      2.20339723      1.68194887
  O      5.95946186      5.13958823      1.67703377
  O      5.96566304      8.10942773      1.68229407
  O      5.94524387     14.01782320      1.68779665
  O      5.95354673     11.08601017      1.68358189
  O      5.95528376     16.95379168      1.68463562
  O     12.29246787      2.20195007      1.69099384
  O     18.62575984      2.21227788      1.83525276
  O     12.28452068      5.14051383      1.75764344
  O     18.62017102      5.14254475      1.83441092
  O     12.28914652      8.10418554      1.75681264
  O     18.64905493      8.10833228      1.83682540
  O     12.28662301     14.01954220      1.76159469
  O     18.61059405     14.01986053      1.83545158
  O     12.28857284     11.09090290      1.68761131
  O     18.62317401     11.09137940      1.83378876
  O     12.28853624     16.99128604      1.76207960
  O     18.61934790     16.94840718      1.83467269
  O      3.46948841      2.20139497      1.68717777
  O      3.47215140      5.13937680      1.68251241
  O      3.47335764      8.11115249      1.68624111
  O      3.46212985     14.01819229      1.68117656
  O      3.46962277     11.04478342      1.68263797
  O      3.46840258     16.99577545      1.68401847
  O      9.78431733      2.20573658      1.68103467
  O     16.13837305      2.20139102      1.53054958
  O      9.79675259      5.13224902      1.67983105
  O     16.13978503      5.18024497      1.52499455
  O      9.79530710      8.11130430      1.68002857
  O     16.14589949      8.11385408      1.52975491
  O      9.78242110     14.02145495      1.68895948
  O     16.11464763     14.01877464      1.52984265
  O      9.79038263     11.04804169      1.67662079
  O     16.14191410     11.03978038      1.52616360
  O      9.78818432     16.99047402      1.69182576
  O     16.13317014     16.99652826      1.53272120
  O      1.42393094      0.72053339      0.31645715
  O      1.42576516      3.68387022      0.31618157
  O      1.42382071      6.62384676      0.31944601
  O      1.43076986     12.54025263      0.31226098
  O      1.42449936      9.60326446      0.31583437
  O      1.42956532     15.50170704      0.31328958
  O      7.87020297      0.72560092      0.38049419
  O     14.17779635      0.72350267      0.39060500
  O      7.87569011      3.69226584      0.36327070
  O     14.17944899      3.69428733      0.38685930
  O      7.87761483      6.63133533      0.37758631
  O     14.17691423      6.63627626      0.38745129
  O      7.87082299     12.53333826      0.38429224
  O     14.18046614     12.52934712      0.38851761
  O      7.87285737      9.58426111      0.38333482
  O     14.17614380      9.58680980      0.38902799
  O      7.86897627     15.50298239      0.38608735
  O     14.17575728     15.50745301      0.38694374
 Ti      1.21202878      0.71942337     -1.75752175
 Ti      1.21975963      3.67805472     -1.74110369
 Ti      1.22111716      6.63676035     -1.75533981
 Ti      1.22849042     12.55412208     -1.76041713
 Ti      1.22816291      9.59460746     -1.76515972
 Ti      1.22709747     15.51555674     -1.75892704
 Ti      7.81592619      0.70815691     -1.75287415
 Ti     14.38158119      0.71494161     -1.74474248
 Ti      7.80441092      3.67854378     -1.75257935
 Ti     14.37667801      3.68492053     -1.74500898
 Ti      7.81736303      6.63892084     -1.77625323
 Ti     14.39331679      6.64344134     -1.77549943
 Ti      7.83696388     12.55658465     -1.73913837
 Ti     14.41282109     12.55049553     -1.76073407
 Ti      7.83299588      9.59648136     -1.75768511
 Ti     14.39561168      9.59560913     -1.76648022
 Ti      7.81589198     15.51260085     -1.75790650
 Ti     14.40934091     15.51010728     -1.75630241
 Ti      4.52199207      2.19050397     -1.59161227
 Ti      4.52373824      5.15426536     -1.55230957
 Ti      4.52843688      8.11879900     -1.54955447
 Ti      4.52242957     14.02788300     -1.58772473
 Ti      4.53079138     11.07968169     -1.59126437
 Ti      4.51358792     17.00203362     -1.57907569
 Ti     11.08823270      2.18916184     -1.58733264
 Ti     17.65604673      2.19783817     -1.55248141
 Ti     11.08432363      5.15913192     -1.58883355
 Ti     17.66893902      5.16127300     -1.56595475
 Ti     11.08575948      8.12733818     -1.56890861
 Ti     17.68745030      8.12028738     -1.56060303
 Ti     11.11629116     14.03082356     -1.56258642
 Ti     17.68818458     14.03100085     -1.55812337
 Ti     11.09881007     11.08605676     -1.56207204
 Ti     17.69462097     11.07650451     -1.55489374
 Ti     11.10410228     16.98111534     -1.56242844
 Ti     17.67622831     16.99175535     -1.55176830
 Ti      1.30369970      2.19477698     -5.04772806
 Ti      1.31326858      5.12839073     -5.06048784
 Ti      1.30359635      8.09782824     -5.06656126
 Ti      1.29820627     14.00489532     -5.04681690
 Ti      1.30725828     11.07251972     -5.06745828
 Ti      1.18973891     16.97985252     -5.06112726
 Ti      7.88664190      2.17917051     -5.02767245
 Ti     14.46226053      2.18925818     -5.03217217
 Ti      7.90023798      5.11224747     -5.08518336
 Ti     14.48015323      5.11228181     -5.08395591
 Ti      7.89220098      8.10050586     -5.10119657
 Ti     14.47471673      8.10258285     -5.09878726
 Ti      7.90136460     14.00015542     -5.07435167
 Ti     14.48080143     14.05402072     -5.10816406
 Ti      7.90055760     11.08069982     -5.06893140
 Ti     14.49247153     11.08398312     -5.09432306
 Ti      7.79144382     16.97928002     -5.08718989
 Ti     14.46501303     16.99934982     -5.08067258
 Ti      4.50271475      0.67853286     -4.94553993
 Ti      4.59738169      3.66118026     -4.86025121
 Ti      4.58795066      6.64821928     -4.84268471
 Ti      4.60536881     12.54970432     -4.94445295
 Ti      4.55390161      9.59821891     -4.86271729
 Ti      4.49358231     15.51842562     -4.83720531
 Ti     11.07892972      0.67118858     -4.85049841
 Ti     17.67039963      0.74986841     -4.84503371
 Ti     11.18252030      3.65473495     -4.85592691
 Ti     17.76770073      3.67433079     -4.85125511
 Ti     11.15972404      6.63934225     -4.84267761
 Ti     17.67063633      6.63780116     -4.84905131
 Ti     11.17112152     12.54017942     -4.85760201
 Ti     17.76086193     12.53997692     -4.85494921
 Ti     11.16798488      9.57195295     -4.84076381
 Ti     17.76496603      9.55830793     -4.84740701
 Ti     11.15998408     15.52326962     -4.85603701
 Ti     17.68720513     15.52292102     -4.85539531
  O      4.50839834      0.71926992     -0.34010255
  O      4.51180337      3.65916205     -0.33721896
  O      4.51887021      6.64521145     -0.32875073
  O      4.51161413     12.54452216     -0.34718719
  O      4.51399177      9.60207771     -0.33527885
  O      4.50858683     15.51999133     -0.34330149
  O     11.09212688      0.71909360     -0.33393099
  O     17.67306178      0.71960864     -0.32624871
  O     11.08613898      3.66660444     -0.33859022
  O     17.67187301      3.67579707     -0.33129425
  O     11.08687446      6.64625509     -0.33282806
  O     17.67882754      6.64937818     -0.33545907
  O     11.09791677     12.54805853     -0.32934449
  O     17.68737917     12.54486418     -0.32962540
  O     11.08851999      9.59698890     -0.33086711
  O     17.68149603      9.59505575     -0.33078478
  O     11.10075215     15.51551655     -0.32912311
  O     17.68061647     15.52098124     -0.32755178
  O      2.52847458      2.19707998     -1.67679718
  O      2.52832193      5.15681189     -1.59992168
  O      2.53206906      8.11526864     -1.59912302
  O      2.53200488     14.03278665     -1.67630701
  O      2.53590867     11.07698556     -1.67230927
  O      2.52677125     17.00029427     -1.67740184
  O      9.11406052      2.19884860     -1.67864147
  O     15.66027481      2.20128230     -1.60682690
  O      9.11371744      5.15178411     -1.67959564
  O     15.68312353      5.15606203     -1.67034020
  O      9.11588751      8.11405535     -1.67463941
  O     15.69644398      8.11745240     -1.67484631
  O      9.12073918     14.04147867     -1.59814875
  O     15.69885201     14.03604208     -1.59316166
  O      9.11817370     11.07935990     -1.59758737
  O     15.69852913     11.07306338     -1.59923402
  O      9.11734449     16.99008436     -1.59691019
  O     15.68684695     16.99659036     -1.59685671
  O     -0.10072615      2.20175982     -1.60244580
  O     -0.09579378      5.15240906     -1.67670630
  O     -0.07514011      8.11249668     -1.67802483
  O     -0.07997509     14.03686181     -1.67843142
  O     -0.06251463     11.07923762     -1.67655237
  O     -0.08890155     16.99510939     -1.61109102
  O      6.53071700      2.19032508     -1.67172479
  O     13.06451304      2.19708269     -1.67898259
  O      6.52627547      5.15988572     -1.66892877
  O     13.06317794      5.16288646     -1.67592260
  O      6.53688575      8.12127107     -1.67584601
  O     13.06545909      8.11712948     -1.67680757
  O      6.53388118     14.03021317     -1.67708590
  O     13.11354058     14.03292781     -1.68743175
  O      6.54354296     11.07890128     -1.68159552
  O     13.07787612     11.07697217     -1.68239403
  O      6.51999909     16.98999569     -1.67025951
  O     13.08496487     16.98988190     -1.68200143
  O      4.53786602      0.70758103     -2.98954359
  O      4.54403684      3.67864201     -2.95059834
  O      4.54353763      6.63931244     -2.94590286
  O      4.54931403     12.55001857     -3.00414110
  O      4.54615327      9.59563606     -2.95107735
  O      4.54267882     15.51674688     -2.94921836
  O     11.04506561      0.70543087     -2.94757649
  O     17.62852426      0.71755324     -2.94208397
  O     11.12606359      3.67523189     -2.95208329
  O     17.64228330      3.67077609     -2.95163973
  O     11.04922967      6.64422526     -2.95127756
  O     17.63499851      6.63701585     -2.94918907
  O     11.04627626     12.55632668     -2.94631192
  O     17.63298724     12.55424168     -2.94694517
  O     11.04425365      9.59476593     -2.94705195
  O     17.71067856      9.59785626     -2.94637882
  O     11.11407381     15.51567955     -2.94738607
  O     17.62761844     15.51867240     -2.94770046
  O      1.16730567      0.72032719     -3.64614811
  O      1.24142946      3.67323106     -3.64559693
  O      1.25422791      6.63149921     -3.64836590
  O      1.24573761     12.55074781     -3.65661944
  O      1.24698371      9.58996293     -3.65482874
  O      1.24079256     15.51415465     -3.64850943
  O      7.84755798      0.65822843     -3.65317225
  O     14.42834009      0.70876926     -3.65114366
  O      7.75772666      3.67282632     -3.65992126
  O     14.41503644      3.67239459     -3.65396500
  O      7.84214381      6.64068554     -3.67133771
  O     14.41796467      6.63181367     -3.66446899
  O      7.92675950     12.55284276     -3.66165811
  O     14.51267915     12.55925359     -3.66583031
  O      7.92393007      9.59868971     -3.66747811
  O     14.42720808      9.60368487     -3.66342736
  O      7.85000805     15.50868029     -3.66170648
  O     14.51404225     15.51566398     -3.66595195
  O      5.75671982      2.16324301     -5.01435958
  O      5.75975303      5.15448081     -5.01530183
  O      5.76556015      8.14428322     -5.01539114
  O      5.75653567     14.03557632     -5.01636649
  O      5.78411909     11.08130282     -5.09072135
  O      5.76834411     16.97608362     -5.06744863
  O     12.34626893      2.16631666     -5.01136403
  O     18.92693223      2.16872457     -5.01182269
  O     12.35319463      5.15333855     -5.01211275
  O     18.92479343      5.15702773     -5.01288125
  O     12.38480073      8.10072512     -4.98445473
  O     18.93235633      8.05623231     -5.01259674
  O     12.35286853     14.03080392     -5.00936198
  O     18.92498483     14.03379252     -5.01470270
  O     12.37642473     11.06886562     -4.98555887
  O     18.93427013     11.04978872     -5.01564865
  O     12.37237753     16.98851532     -4.98794386
  O     18.92340113     17.02074082     -5.01352979
  O      3.22044698      2.16860736     -5.01483320
  O      3.22535877      5.15561492     -5.01428870
  O      3.22541749      8.14656077     -5.01556500
  O      3.21913862     14.03265332     -5.01720782
  O      3.22122825     11.05180552     -5.01514675
  O      3.19055941     16.98232112     -4.99293827
  O      9.80662525      2.17046481     -5.01076665
  O     16.39100653      2.17423529     -5.01482192
  O      9.80898175      5.15497252     -5.01507870
  O     16.39253663      5.14959923     -5.01645290
  O      9.91779221      8.13950322     -5.26757440
  O     16.39480123      8.14363750     -5.01513968
  O      9.93210408     14.03336686     -5.19536888
  O     16.50904620     14.03254601     -5.20296988
  O      9.94031990     11.07440600     -5.19705723
  O     16.52457610     11.06721736     -5.19701748
  O      9.89109481     16.97561302     -5.19278317
  O     16.48915131     16.99946280     -5.19553072
  O      1.25088733      0.71851802     -6.18411049
  O      1.24511498      3.66782190     -6.18930110
  O      1.25127594      6.62532430     -6.18717196
  O      1.25087407     12.55127117     -6.19242414
  O      1.24291261      9.58949157     -6.18831295
  O      1.24441005     15.50623474     -6.18118684
  O      7.75313584      0.71934483     -6.18526678
  O     14.41859379      0.72195880     -6.18694327
  O      7.83046563      3.64396538     -6.19141794
  O     14.34234357      3.65447390     -6.19246203
  O      7.75205245      6.62230557     -6.19408800
  O     14.42223371      6.61949175     -6.19834840
  O      7.75339785     12.55076102     -6.19457837
  O     14.33862573     12.56087697     -6.19719842
  O      7.82727799      9.60001139     -6.19093921
  O     14.41597948      9.59571130     -6.19876855
  O      7.75657171     15.49529594     -6.18846092
  O     14.33832771     15.52441085     -6.20041601
 Au      7.62070100      6.47321950      7.63059874
 Au      9.68642881      8.19224296      8.25987655
 Au     12.48632385      7.49364581      7.94762551
 Au      7.15533143      9.20790415      7.72900851
 Au     10.51715586      5.72170663      7.51930217
 Au      9.20415235     10.91734229      8.46747538
 Au     14.35597316      9.46824442      7.76000221
 Au     11.83089783     10.08899306      8.64406641

