439
Energy = -13269.70230864 au
 Ti      1.56712329      0.72489091      4.67523415
 Ti      1.58768435      3.68641225      4.67820781
 Ti      1.59482705      6.63724373      4.66722252
 Ti      1.57445237     12.53630166      4.71733338
 Ti      1.59890941      9.58739742      4.67485104
 Ti      1.61392541     15.49496350      4.68780618
 Ti      7.86950760      0.72045458      4.73195214
 Ti     14.18653107      0.72574254      4.74113342
 Ti      7.86944719      3.66889939      4.73128996
 Ti     14.19593998      3.66777425      4.74181665
 Ti      7.93606021      6.62072953      4.86780989
 Ti     14.20581857      6.62264507      4.78364803
 Ti      7.87006761     12.54061886      4.72724971
 Ti     14.18533789     12.55167916      4.72286210
 Ti      7.88370373      9.58717581      4.73611831
 Ti     14.18718573      9.59500821      4.79700109
 Ti      7.89159990     15.49522812      4.73540919
 Ti     14.24118339     15.50053896      4.73387500
 Ti      4.71597797      2.19962024      5.31896891
 Ti      4.73001390      5.14353488      5.27915731
 Ti      4.73448294      8.10993530      5.26232730
 Ti      4.72271460     14.02189634      5.31945445
 Ti      4.72352344     11.07902202      5.27653951
 Ti      4.72277095     16.96922274      5.29581461
 Ti     11.02825662      2.13768507      5.30635680
 Ti     17.32573769      2.19290461      5.15791149
 Ti     11.05162810      4.93470534      4.72409029
 Ti     17.33929603      5.12496733      5.11792482
 Ti     11.04907197      8.34145739      4.79994837
 Ti     17.34678333      8.13306175      5.08743082
 Ti     11.04234458     14.06760830      5.28383964
 Ti     17.33163187     14.04374590      5.15855104
 Ti     11.03117611     11.16074563      5.31113294
 Ti     17.33625383     11.11388936      5.11205429
 Ti     11.04529774     16.95817620      5.28287229
 Ti     17.33032050     16.97810157      5.13246581
  O      4.72926197      0.71736865      3.75574334
  O      4.72656400      3.69297830      3.75511083
  O      4.72383649      6.62030622      3.73538202
  O      4.72635960     12.53221338      3.75729761
  O      4.72453620      9.60039959      3.70409823
  O      4.66123184     15.50368109      3.75404980
  O     11.02989010      0.72114975      3.77295053
  O     17.25652857      0.72242209      3.66117933
  O     11.03011059      3.54351251      3.65360798
  O     17.25598481      3.69522212      3.66354118
  O     10.95999968      6.62901257      3.75690257
  O     17.26081563      6.62078950      3.61094701
  O     11.02574635     12.52555150      3.76464270
  O     17.25492762     12.52753786      3.65834839
  O     11.03378517      9.68724636      3.66834952
  O     17.26865535      9.60297419      3.61330746
  O     11.02145678     15.51144678      3.75891806
  O     17.18830176     15.50247152      3.66191411
  O      4.72917267      0.72029336      6.38746922
  O      4.72735056      3.68995795      6.38506531
  O      4.79827579      6.63276189      6.33612000
  O      4.73377036      9.58517962      6.32908059
  O      4.73135194     12.52945385      6.38375665
  O      4.72889237     15.50412094      6.38794212
  O     11.03122722      0.71129245      6.40088523
  O     17.41317303      0.72243021      6.23812417
  O     11.02499392      3.76814809      6.23254867
  O     17.41005453      3.69816601      6.23706155
  O     17.32557171      6.66734254      6.22566190
  O     11.03194269     12.59361190      6.39977580
  O     17.40678234     12.53404104      6.23679147
  O     11.02290549      9.53662137      6.23956139
  O     17.31940925      9.59322632      6.22829433
  O     11.02991076     15.50862199      6.39067071
  O     17.40973911     15.50632125      6.23855196
  O      2.76524760      2.20677751      5.12231439
  O      2.76904349      5.17637934      5.12963490
  O      2.77118075      8.11049577      5.12461352
  O      2.76020570     14.01164372      5.19639363
  O      2.77106728     11.04368442      5.12533969
  O      2.76532366     16.99914116      5.13003044
  O      9.06926434      2.19740185      5.12762924
  O     15.35757804      2.20386309      5.19698597
  O      9.13174400      5.12350675      5.03489992
  O     15.35719889      5.11904705      5.11867158
  O      9.13535487      8.11407912      5.10138622
  O     15.36862460      8.11511498      4.95685336
  O      9.07150428     14.01732293      5.12144270
  O     15.35828918     14.01497046      5.20283838
  O      9.07347533     11.09184729      5.13009964
  O     15.36196210     11.09329841      5.11856471
  O      9.07146863     16.99001208      5.12667688
  O     15.35980520     17.00213290      5.20184032
  O      0.39113781      2.21044802      4.96549158
  O      0.38997396      5.18528754      4.97070866
  O      0.38766780      8.11191115      4.96705229
  O      0.39045316     14.02316661      4.96244734
  O      0.39574135     11.03501507      5.03793296
  O      0.39384392     16.94223597      4.96338582
  O      6.68330109      2.20187733      5.12375124
  O     12.97649102      2.19806623      5.12180771
  O      6.70381275      5.12597473      5.12191967
  O     12.92660242      5.17819769      4.97746378
  O      6.69895296      8.11890608      5.04655424
  O     12.92729084      8.05019313      5.05689670
  O      6.68452155     14.02207701      5.12166498
  O     12.97797193     14.03330131      5.05015027
  O      6.69276737     11.03762349      5.12163607
  O     12.97690089     11.09752777      5.12041754
  O      6.68552133     16.94686130      5.12286734
  O     12.98975642     16.94701491      5.11723504
 Ti      1.58998277      2.19935527      1.48844628
 Ti      1.58717496      5.16005911      1.50023013
 Ti      1.58998179      8.11701541      1.47618646
 Ti      1.57199819     14.02053365      1.51054670
 Ti      1.58725226     11.07254180      1.51014337
 Ti      1.57737878     16.96600940      1.50524784
 Ti      7.87561869      2.21884176      1.49058651
 Ti     14.25907982      2.20946426      1.49032821
 Ti      7.87748624      5.17901160      1.56246022
 Ti     14.25535159      5.17800529      1.52899592
 Ti      7.87817240      8.06367687      1.57394345
 Ti     14.26677941      8.10160917      1.54589089
 Ti      7.88103119     14.01357805      1.50968834
 Ti     14.20368009     14.00444333      1.48475705
 Ti      7.87757714     11.02733127      1.48659341
 Ti     14.25817753     11.03467630      1.51235861
 Ti      7.88229861     16.97301215      1.51660852
 Ti     14.22217502     16.97207262      1.51614417
 Ti      4.72962950      0.72136587      1.93285455
 Ti      4.72115309      3.67475601      1.92530833
 Ti      4.72244740      6.62968434      1.91724136
 Ti      4.72328867     12.55011096      1.92601618
 Ti      4.72299279      9.59919187      1.89588976
 Ti      4.70573375     15.49921007      1.91908749
 Ti     11.04266147      0.72024665      1.93521851
 Ti     17.39524197      0.71786059      1.76125116
 Ti     11.08328820      3.63669299      1.59212197
 Ti     17.39186890      3.67396286      1.75570713
 Ti     11.04619349      6.62739447      1.76720309
 Ti     17.39114274      6.62674411      1.75879637
 Ti     11.03113611     12.54760016      1.93695827
 Ti     17.36490015     12.54882836      1.75541736
 Ti     11.09827949      9.61715679      1.61618448
 Ti     17.40800463      9.59157613      1.75191857
 Ti     11.05358086     15.50488349      1.90785682
 Ti     17.34017693     15.49749533      1.75806900
  O      1.65238779      0.71766586      2.89120211
  O      1.65663259      3.68990502      2.89651963
  O      1.65760084      6.62463076      2.88429114
  O      1.65369498     12.53574709      2.93760861
  O      1.65583187      9.60018723      2.88801485
  O      1.65892077     15.50238877      2.89625285
  O      7.87712899      0.71901944      2.95430367
  O     14.25858983      0.72051600      2.95829842
  O      7.87843297      3.68371645      2.94982666
  O     14.25845712      3.63211298      2.95731023
  O      7.88237685      6.61947174      2.97214165
  O     14.26036446      6.61516038      2.95689029
  O      7.88048997     12.52747000      2.95196185
  O     14.25965763     12.52954460      2.94304488
  O      7.88267647      9.60101765      2.95451467
  O     14.24891338      9.60657875      2.96481742
  O      7.87953980     15.50548685      2.95474447
  O     14.26380849     15.50770615      2.95387438
  O      5.96841430      2.20276960      1.68235230
  O      5.96284890      5.13899634      1.67799483
  O      5.96717267      8.10962502      1.68028115
  O      5.96506992     14.02467000      1.68463249
  O      5.97100570     11.08625471      1.67666675
  O      5.95913992     16.95587269      1.68446274
  O     12.29306058      2.19734439      1.68835537
  O     18.64707048      2.20326525      1.83456662
  O     12.28932986      5.13525043      1.75991214
  O     18.63948026      5.13719991      1.82375419
  O     12.29130053      8.10619090      1.75975978
  O     18.65286125      8.10813364      1.82770687
  O     12.28786771     14.01865049      1.76194543
  O     18.61873619     14.02099650      1.83269170
  O     12.28965181     11.08724646      1.69001905
  O     18.64104359     11.09501984      1.82489213
  O     12.28867081     16.99121081      1.76177173
  O     18.62135394     16.94752877      1.83560488
  O      3.47287503      2.20103179      1.68796256
  O      3.47573482      5.13864616      1.68332478
  O      3.47329096      8.11009253      1.68373116
  O      3.46889761     14.01796690      1.68496730
  O      3.47601319     11.09116892      1.68451362
  O      3.47022583     16.99404752      1.68437389
  O      9.78608596      2.20502506      1.68051585
  O     16.14817462      2.20131391      1.53062510
  O      9.81273655      5.13416774      1.68234748
  O     16.14638821      5.13402402      1.52906970
  O      9.81780381      8.11251583      1.68392094
  O     16.14974249      8.11161620      1.52782173
  O      9.78745164     14.02016995      1.69115151
  O     16.12876261     14.01535900      1.53217782
  O      9.79394540     11.03932811      1.68070973
  O     16.14521984     11.04825093      1.52647345
  O      9.79054219     16.98906894      1.69154122
  O     16.13781285     16.99542966      1.53407224
  O      1.42522680      0.71699139      0.31516266
  O      1.42867523      3.68082811      0.31328541
  O      1.42480582      6.62429245      0.31622214
  O      1.48316541     12.54663024      0.31703328
  O      1.42759824      9.60708825      0.31506437
  O      1.43189265     15.49852596      0.31571228
  O      7.87082075      0.72414646      0.37840379
  O     14.17924519      0.71772052      0.38796757
  O      7.87754012      3.69617665      0.37487152
  O     14.17870071      3.69517193      0.38664212
  O      7.88095802      6.62327862      0.38587753
  O     14.18020053      6.62482370      0.39148205
  O      7.87423962     12.53212668      0.37928364
  O     14.18088024     12.52835812      0.38605945
  O      7.87638732      9.54328021      0.38421641
  O     14.17703240      9.55651105      0.38938477
  O      7.87167509     15.50244355      0.38620169
  O     14.17762867     15.50594704      0.38802435
 Ti      1.21202878      0.71942337     -1.75752175
 Ti      1.21975963      3.67805472     -1.74110369
 Ti      1.22111716      6.63676035     -1.75533981
 Ti      1.22849042     12.55412208     -1.76041713
 Ti      1.22816291      9.59460746     -1.76515972
 Ti      1.22709747     15.51555674     -1.75892704
 Ti      7.81592619      0.70815691     -1.75287415
 Ti     14.38158119      0.71494161     -1.74474248
 Ti      7.80441092      3.67854378     -1.75257935
 Ti     14.37667801      3.68492053     -1.74500898
 Ti      7.81736303      6.63892084     -1.77625323
 Ti     14.39331679      6.64344134     -1.77549943
 Ti      7.83696388     12.55658465     -1.73913837
 Ti     14.41282109     12.55049553     -1.76073407
 Ti      7.83299588      9.59648136     -1.75768511
 Ti     14.39561168      9.59560913     -1.76648022
 Ti      7.81589198     15.51260085     -1.75790650
 Ti     14.40934091     15.51010728     -1.75630241
 Ti      4.52199207      2.19050397     -1.59161227
 Ti      4.52373824      5.15426536     -1.55230957
 Ti      4.52843688      8.11879900     -1.54955447
 Ti      4.52242957     14.02788300     -1.58772473
 Ti      4.53079138     11.07968169     -1.59126437
 Ti      4.51358792     17.00203362     -1.57907569
 Ti     11.08823270      2.18916184     -1.58733264
 Ti     17.65604673      2.19783817     -1.55248141
 Ti     11.08432363      5.15913192     -1.58883355
 Ti     17.66893902      5.16127300     -1.56595475
 Ti     11.08575948      8.12733818     -1.56890861
 Ti     17.68745030      8.12028738     -1.56060303
 Ti     11.11629116     14.03082356     -1.56258642
 Ti     17.68818458     14.03100085     -1.55812337
 Ti     11.09881007     11.08605676     -1.56207204
 Ti     17.69462097     11.07650451     -1.55489374
 Ti     11.10410228     16.98111534     -1.56242844
 Ti     17.67622831     16.99175535     -1.55176830
 Ti      1.30369970      2.19477698     -5.04772806
 Ti      1.31326858      5.12839073     -5.06048784
 Ti      1.30359635      8.09782824     -5.06656126
 Ti      1.29820627     14.00489532     -5.04681690
 Ti      1.30725828     11.07251972     -5.06745828
 Ti      1.18973891     16.97985252     -5.06112726
 Ti      7.88664190      2.17917051     -5.02767245
 Ti     14.46226053      2.18925818     -5.03217217
 Ti      7.90023798      5.11224747     -5.08518336
 Ti     14.48015323      5.11228181     -5.08395591
 Ti      7.89220098      8.10050586     -5.10119657
 Ti     14.47471673      8.10258285     -5.09878726
 Ti      7.90136460     14.00015542     -5.07435167
 Ti     14.48080143     14.05402072     -5.10816406
 Ti      7.90055760     11.08069982     -5.06893140
 Ti     14.49247153     11.08398312     -5.09432306
 Ti      7.79144382     16.97928002     -5.08718989
 Ti     14.46501303     16.99934982     -5.08067258
 Ti      4.50271475      0.67853286     -4.94553993
 Ti      4.59738169      3.66118026     -4.86025121
 Ti      4.58795066      6.64821928     -4.84268471
 Ti      4.60536881     12.54970432     -4.94445295
 Ti      4.55390161      9.59821891     -4.86271729
 Ti      4.49358231     15.51842562     -4.83720531
 Ti     11.07892972      0.67118858     -4.85049841
 Ti     17.67039963      0.74986841     -4.84503371
 Ti     11.18252030      3.65473495     -4.85592691
 Ti     17.76770073      3.67433079     -4.85125511
 Ti     11.15972404      6.63934225     -4.84267761
 Ti     17.67063633      6.63780116     -4.84905131
 Ti     11.17112152     12.54017942     -4.85760201
 Ti     17.76086193     12.53997692     -4.85494921
 Ti     11.16798488      9.57195295     -4.84076381
 Ti     17.76496603      9.55830793     -4.84740701
 Ti     11.15998408     15.52326962     -4.85603701
 Ti     17.68720513     15.52292102     -4.85539531
  O      4.50839834      0.71926992     -0.34010255
  O      4.51180337      3.65916205     -0.33721896
  O      4.51887021      6.64521145     -0.32875073
  O      4.51161413     12.54452216     -0.34718719
  O      4.51399177      9.60207771     -0.33527885
  O      4.50858683     15.51999133     -0.34330149
  O     11.09212688      0.71909360     -0.33393099
  O     17.67306178      0.71960864     -0.32624871
  O     11.08613898      3.66660444     -0.33859022
  O     17.67187301      3.67579707     -0.33129425
  O     11.08687446      6.64625509     -0.33282806
  O     17.67882754      6.64937818     -0.33545907
  O     11.09791677     12.54805853     -0.32934449
  O     17.68737917     12.54486418     -0.32962540
  O     11.08851999      9.59698890     -0.33086711
  O     17.68149603      9.59505575     -0.33078478
  O     11.10075215     15.51551655     -0.32912311
  O     17.68061647     15.52098124     -0.32755178
  O      2.52847458      2.19707998     -1.67679718
  O      2.52832193      5.15681189     -1.59992168
  O      2.53206906      8.11526864     -1.59912302
  O      2.53200488     14.03278665     -1.67630701
  O      2.53590867     11.07698556     -1.67230927
  O      2.52677125     17.00029427     -1.67740184
  O      9.11406052      2.19884860     -1.67864147
  O     15.66027481      2.20128230     -1.60682690
  O      9.11371744      5.15178411     -1.67959564
  O     15.68312353      5.15606203     -1.67034020
  O      9.11588751      8.11405535     -1.67463941
  O     15.69644398      8.11745240     -1.67484631
  O      9.12073918     14.04147867     -1.59814875
  O     15.69885201     14.03604208     -1.59316166
  O      9.11817370     11.07935990     -1.59758737
  O     15.69852913     11.07306338     -1.59923402
  O      9.11734449     16.99008436     -1.59691019
  O     15.68684695     16.99659036     -1.59685671
  O     -0.10072615      2.20175982     -1.60244580
  O     -0.09579378      5.15240906     -1.67670630
  O     -0.07514011      8.11249668     -1.67802483
  O     -0.07997509     14.03686181     -1.67843142
  O     -0.06251463     11.07923762     -1.67655237
  O     -0.08890155     16.99510939     -1.61109102
  O      6.53071700      2.19032508     -1.67172479
  O     13.06451304      2.19708269     -1.67898259
  O      6.52627547      5.15988572     -1.66892877
  O     13.06317794      5.16288646     -1.67592260
  O      6.53688575      8.12127107     -1.67584601
  O     13.06545909      8.11712948     -1.67680757
  O      6.53388118     14.03021317     -1.67708590
  O     13.11354058     14.03292781     -1.68743175
  O      6.54354296     11.07890128     -1.68159552
  O     13.07787612     11.07697217     -1.68239403
  O      6.51999909     16.98999569     -1.67025951
  O     13.08496487     16.98988190     -1.68200143
  O      4.53786602      0.70758103     -2.98954359
  O      4.54403684      3.67864201     -2.95059834
  O      4.54353763      6.63931244     -2.94590286
  O      4.54931403     12.55001857     -3.00414110
  O      4.54615327      9.59563606     -2.95107735
  O      4.54267882     15.51674688     -2.94921836
  O     11.04506561      0.70543087     -2.94757649
  O     17.62852426      0.71755324     -2.94208397
  O     11.12606359      3.67523189     -2.95208329
  O     17.64228330      3.67077609     -2.95163973
  O     11.04922967      6.64422526     -2.95127756
  O     17.63499851      6.63701585     -2.94918907
  O     11.04627626     12.55632668     -2.94631192
  O     17.63298724     12.55424168     -2.94694517
  O     11.04425365      9.59476593     -2.94705195
  O     17.71067856      9.59785626     -2.94637882
  O     11.11407381     15.51567955     -2.94738607
  O     17.62761844     15.51867240     -2.94770046
  O      1.16730567      0.72032719     -3.64614811
  O      1.24142946      3.67323106     -3.64559693
  O      1.25422791      6.63149921     -3.64836590
  O      1.24573761     12.55074781     -3.65661944
  O      1.24698371      9.58996293     -3.65482874
  O      1.24079256     15.51415465     -3.64850943
  O      7.84755798      0.65822843     -3.65317225
  O     14.42834009      0.70876926     -3.65114366
  O      7.75772666      3.67282632     -3.65992126
  O     14.41503644      3.67239459     -3.65396500
  O      7.84214381      6.64068554     -3.67133771
  O     14.41796467      6.63181367     -3.66446899
  O      7.92675950     12.55284276     -3.66165811
  O     14.51267915     12.55925359     -3.66583031
  O      7.92393007      9.59868971     -3.66747811
  O     14.42720808      9.60368487     -3.66342736
  O      7.85000805     15.50868029     -3.66170648
  O     14.51404225     15.51566398     -3.66595195
  O      5.75671982      2.16324301     -5.01435958
  O      5.75975303      5.15448081     -5.01530183
  O      5.76556015      8.14428322     -5.01539114
  O      5.75653567     14.03557632     -5.01636649
  O      5.78411909     11.08130282     -5.09072135
  O      5.76834411     16.97608362     -5.06744863
  O     12.34626893      2.16631666     -5.01136403
  O     18.92693223      2.16872457     -5.01182269
  O     12.35319463      5.15333855     -5.01211275
  O     18.92479343      5.15702773     -5.01288125
  O     12.38480073      8.10072512     -4.98445473
  O     18.93235633      8.05623231     -5.01259674
  O     12.35286853     14.03080392     -5.00936198
  O     18.92498483     14.03379252     -5.01470270
  O     12.37642473     11.06886562     -4.98555887
  O     18.93427013     11.04978872     -5.01564865
  O     12.37237753     16.98851532     -4.98794386
  O     18.92340113     17.02074082     -5.01352979
  O      3.22044698      2.16860736     -5.01483320
  O      3.22535877      5.15561492     -5.01428870
  O      3.22541749      8.14656077     -5.01556500
  O      3.21913862     14.03265332     -5.01720782
  O      3.22122825     11.05180552     -5.01514675
  O      3.19055941     16.98232112     -4.99293827
  O      9.80662525      2.17046481     -5.01076665
  O     16.39100653      2.17423529     -5.01482192
  O      9.80898175      5.15497252     -5.01507870
  O     16.39253663      5.14959923     -5.01645290
  O      9.91779221      8.13950322     -5.26757440
  O     16.39480123      8.14363750     -5.01513968
  O      9.93210408     14.03336686     -5.19536888
  O     16.50904620     14.03254601     -5.20296988
  O      9.94031990     11.07440600     -5.19705723
  O     16.52457610     11.06721736     -5.19701748
  O      9.89109481     16.97561302     -5.19278317
  O     16.48915131     16.99946280     -5.19553072
  O      1.25088733      0.71851802     -6.18411049
  O      1.24511498      3.66782190     -6.18930110
  O      1.25127594      6.62532430     -6.18717196
  O      1.25087407     12.55127117     -6.19242414
  O      1.24291261      9.58949157     -6.18831295
  O      1.24441005     15.50623474     -6.18118684
  O      7.75313584      0.71934483     -6.18526678
  O     14.41859379      0.72195880     -6.18694327
  O      7.83046563      3.64396538     -6.19141794
  O     14.34234357      3.65447390     -6.19246203
  O      7.75205245      6.62230557     -6.19408800
  O     14.42223371      6.61949175     -6.19834840
  O      7.75339785     12.55076102     -6.19457837
  O     14.33862573     12.56087697     -6.19719842
  O      7.82727799      9.60001139     -6.19093921
  O     14.41597948      9.59571130     -6.19876855
  O      7.75657171     15.49529594     -6.18846092
  O     14.33832771     15.52441085     -6.20041601
 Au     13.02220133      8.18819403      8.33242519
 Au     15.14419955      9.55662517      7.58771188
 Au     13.16816150      5.16800139      8.08456578
 Au      7.92827927      6.68769049      7.63018827
 Au     10.37892016      5.41369604      7.69385672
 Au     11.49817513      6.60321419      9.95913167
 Au     15.30190702      6.72935481      7.65357879
 Au     10.26542630      8.18574429      8.06221665
