439
Energy = -13269.70751843 au
 Ti      1.56952020      0.72725012      4.67658046
 Ti      1.57809254      3.69051935      4.68408899
 Ti      1.57350924      6.63752215      4.66974867
 Ti      1.58918311     12.54646877      4.67559145
 Ti      1.56530123      9.59510742      4.66723019
 Ti      1.60648137     15.49898509      4.67690765
 Ti      7.86764945      0.72422562      4.73383481
 Ti     14.18850338      0.72071864      4.74011726
 Ti      7.89084899      3.68154555      4.73800134
 Ti     14.19642746      3.66843864      4.74447171
 Ti      7.89643526      6.63824006      4.75716685
 Ti     14.18871929      6.62203306      4.73801280
 Ti      7.87243134     12.53393923      4.77016390
 Ti     14.15958645     12.52357061      4.82806574
 Ti      7.88905081      9.58681619      4.75145414
 Ti     14.18671808      9.57595354      4.74497771
 Ti      7.89613692     15.49779148      4.73434116
 Ti     14.23864556     15.49168251      4.73790223
 Ti      4.71826701      2.19658692      5.30493312
 Ti      4.72058103      5.13779509      5.28082019
 Ti      4.70829707      8.13857642      5.21033334
 Ti      4.72082980     14.03578944      5.30600124
 Ti      4.71490498     11.10179986      5.25398247
 Ti      4.72213081     16.97244272      5.29061387
 Ti     11.03333304      2.13376123      5.29955940
 Ti     17.32305343      2.19210429      5.16445423
 Ti     11.03392008      4.88759802      4.82039181
 Ti     17.29631610      5.14312504      5.14145907
 Ti     11.04348358      8.35574784      4.78367858
 Ti     17.31133972      8.10408530      5.15981535
 Ti     11.04025447     14.07188124      5.28457424
 Ti     17.33342853     14.02646156      5.13456124
 Ti     11.02007245     11.15686012      5.26557770
 Ti     17.32508355     11.06271285      5.12992159
 Ti     11.04741063     16.96217963      5.28825616
 Ti     17.32762831     16.96477115      5.13507590
  O      4.72965967      0.72011159      3.75630307
  O      4.72552551      3.69896508      3.75934913
  O      4.72187479      6.62033852      3.74267581
  O      4.72017815     12.53490030      3.75663919
  O      4.71571776      9.59642551      3.69701656
  O      4.66126022     15.50244636      3.75594885
  O     11.03057775      0.71544700      3.76670450
  O     17.25608902      0.72007967      3.65907808
  O     11.02553105      3.55267315      3.66845784
  O     17.18798415      3.69826837      3.65656254
  O     11.02169088      6.61591119      3.75544612
  O     17.19029521      6.62521012      3.65577641
  O     11.02341612     12.52823802      3.75901600
  O     17.24803357     12.52976772      3.62472594
  O     11.02887125      9.68498043      3.61551488
  O     17.25770864      9.59335067      3.62823259
  O     11.02024270     15.51078933      3.75764086
  O     17.18678271     15.50640352      3.65303805
  O      4.73023016      0.72492854      6.38202176
  O      4.72796122      3.69643510      6.38405203
  O      4.81298319      6.66948127      6.37454760
  O      4.80370016      9.59298624      6.32338353
  O      4.73874509     12.53101618      6.38304465
  O      4.72937932     15.50461810      6.38711162
  O     11.03155259      0.70439591      6.40158857
  O     17.41213982      0.71776342      6.23743310
  O     11.03120060      3.71254984      6.23412356
  O     17.41131665      3.68984055      6.23624246
  O     17.34511191      6.62783455      6.23363964
  O     11.02765959     12.59215372      6.38366905
  O     17.39717487     12.53399953      6.22790517
  O     11.02750249      9.53365952      6.16352162
  O     17.40714511      9.59654572      6.22787482
  O     11.02940217     15.50805879      6.39353098
  O     17.41181174     15.49001760      6.23139046
  O      2.76649104      2.20802209      5.12351560
  O      2.77204832      5.18493981      5.13445644
  O      2.77240648      8.11628310      5.12472712
  O      2.75907623     14.01554196      5.19731468
  O      2.76988844     11.03713051      5.12662833
  O      2.76616022     17.00099534      5.12854081
  O      9.06617083      2.19734660      5.12511490
  O     15.35621009      2.20372097      5.19636978
  O      9.13009442      5.19135760      5.12487968
  O     15.29649363      5.13040208      5.27534567
  O      9.13017085      8.08633866      5.05807028
  O     15.32201209      8.11187340      5.20407268
  O      9.07131874     14.02314715      5.12270790
  O     15.36392451     14.01982389      5.19462542
  O      9.07462179     11.08454485      5.11218401
  O     15.35917907     11.01871153      5.11364725
  O      9.06936508     16.99348123      5.12612779
  O     15.35993451     16.99851301      5.20230660
  O      0.39027089      2.21242101      4.96329625
  O      0.38362197      5.17950788      4.96530864
  O      0.38575578      8.11038660      4.96530097
  O      0.38862105     14.02047281      4.89460087
  O      0.39364169     11.09032782      4.96452970
  O      0.39426790     16.94281296      4.96318941
  O      6.68602857      2.21178417      5.12273098
  O     12.98717300      2.20035430      5.11929163
  O      6.70070164      5.12906450      5.12315182
  O     12.91938390      5.19029842      5.05127564
  O      6.68515906      8.11790823      4.95773239
  O     12.92168963      8.03754133      5.11754430
  O      6.68037322     14.02748995      5.12456727
  O     12.97276820     14.03360354      5.04124265
  O      6.67114145     11.04025403      5.02749705
  O     12.94720706     11.03286693      5.03836915
  O      6.68413044     16.94833063      5.12360249
  O     12.99113034     16.94641358      5.11699095
 Ti      1.57611544      2.20204747      1.49600006
 Ti      1.57587206      5.15896939      1.50527300
 Ti      1.58878263      8.11495484      1.47486749
 Ti      1.56345290     14.02270880      1.49830635
 Ti      1.57948197     11.07499603      1.49568011
 Ti      1.57371025     16.96986480      1.50228977
 Ti      7.87741527      2.20894122      1.50684917
 Ti     14.25277667      2.20084666      1.49989298
 Ti      7.87737043      5.17416356      1.51853148
 Ti     14.24621704      5.17183819      1.51499374
 Ti      7.88246977      8.11997888      1.51896352
 Ti     14.25943007      8.12857029      1.48282779
 Ti      7.88356222     14.01205007      1.51613276
 Ti     14.21069924     14.00334677      1.52290150
 Ti      7.88353877     11.06614659      1.53778249
 Ti     14.25839791     11.09185757      1.54841754
 Ti      7.88467137     16.96761633      1.51288291
 Ti     14.22435504     16.96130793      1.50671560
 Ti      4.72679695      0.72245881      1.92541566
 Ti      4.71541915      3.67600510      1.92035114
 Ti      4.72218525      6.62972211      1.91461262
 Ti      4.71966626     12.55227810      1.91457136
 Ti      4.72266277      9.60176816      1.87435664
 Ti      4.70325910     15.49964076      1.91166729
 Ti     11.04604477      0.71983946      1.93377014
 Ti     17.39331376      0.71936349      1.76737485
 Ti     11.07550987      3.64596201      1.59545083
 Ti     17.35855585      3.68440751      1.76840685
 Ti     11.04676942      6.62491220      1.83990091
 Ti     17.38552548      6.63792927      1.77518225
 Ti     11.03483839     12.54747869      1.92681855
 Ti     17.36241180     12.54640636      1.76383718
 Ti     11.09899524      9.61163473      1.60928555
 Ti     17.40205400      9.59337646      1.76438485
 Ti     11.05476716     15.50491600      1.90993539
 Ti     17.34054141     15.49749261      1.75204941
  O      1.65141566      0.71981521      2.89225165
  O      1.65503417      3.69102963      2.90029453
  O      1.65695903      6.62481685      2.88637771
  O      1.65991161     12.53751307      2.89121982
  O      1.65627379      9.59992653      2.88716057
  O      1.66098572     15.50553541      2.88943652
  O      7.87599005      0.72020814      2.95445627
  O     14.25838251      0.72538938      2.95748932
  O      7.88048144      3.69377716      2.95796221
  O     14.26059864      3.69097742      2.95986351
  O      7.88165756      6.61582505      2.95476396
  O     14.26103621      6.61982616      2.95646954
  O      7.88079172     12.53465687      2.95921879
  O     14.26142630     12.52682392      2.96677615
  O      7.88518919      9.59976527      2.95011186
  O     14.25532016      9.54094226      2.95828234
  O      7.87882798     15.50661970      2.95457486
  O     14.26362880     15.50857807      2.95457309
  O      5.96657551      2.20527601      1.68337171
  O      5.96033676      5.14224535      1.67810144
  O      5.96825750      8.10841358      1.67894469
  O      5.95982469     14.02569621      1.68472347
  O      5.96374363     11.08784715      1.67711154
  O      5.95586726     16.95762562      1.68483571
  O     12.29223949      2.20231897      1.69125524
  O     18.62951364      2.21252042      1.83570357
  O     12.28611972      5.13401832      1.75575946
  O     18.62171882      5.14274032      1.83440579
  O     12.28973779      8.10516436      1.75418542
  O     18.65157712      8.10624283      1.83464446
  O     12.28773867     14.01942258      1.76173305
  O     18.62140087     14.02557544      1.83112456
  O     12.29066669     11.08518872      1.69072531
  O     18.64067598     11.08544740      1.82602964
  O     12.28925750     16.99160346      1.76144799
  O     18.62300482     16.95071801      1.83456906
  O      3.47048108      2.20270963      1.68807164
  O      3.47316545      5.14085999      1.68346222
  O      3.47262695      8.10938249      1.68305142
  O      3.46777139     14.01908063      1.68249975
  O      3.47374954     11.08995510      1.68182241
  O      3.47004750     16.99624515      1.68465799
  O      9.78369705      2.20624575      1.68109903
  O     16.14002348      2.20166193      1.53077993
  O      9.79700783      5.13437591      1.68327989
  O     16.14069776      5.17957874      1.52558488
  O      9.79614216      8.10858746      1.68263961
  O     16.14786541      8.11162541      1.52590513
  O      9.78717717     14.02121560      1.68995863
  O     16.12890807     14.01862793      1.52814276
  O      9.79592398     11.04718364      1.67685431
  O     16.14438348     11.04009941      1.52742304
  O      9.78829451     16.99054842      1.69069432
  O     16.13631456     16.99641654      1.53264512
  O      1.42489652      0.72157579      0.31640538
  O      1.42636687      3.68401397      0.31692914
  O      1.42388285      6.62254598      0.31787962
  O      1.43237871     12.54705075      0.30772140
  O      1.42773329      9.60287696      0.31290976
  O      1.43123370     15.50446290      0.31181089
  O      7.86983760      0.72736763      0.38212612
  O     14.17841356      0.72256227      0.38946042
  O      7.87556088      3.69002215      0.37151459
  O     14.18030739      3.69383829      0.38823214
  O      7.87784057      6.62959582      0.37247086
  O     14.17732415      6.62549138      0.38074117
  O      7.87271637     12.53577653      0.38393536
  O     14.18184862     12.53166441      0.39270627
  O      7.87408365      9.59362740      0.38022082
  O     14.17771301      9.60081969      0.39046750
  O      7.87037427     15.50214718      0.38576642
  O     14.17732855     15.50028010      0.39175506
 Ti      1.21202878      0.71942337     -1.75752175
 Ti      1.21975963      3.67805472     -1.74110369
 Ti      1.22111716      6.63676035     -1.75533981
 Ti      1.22849042     12.55412208     -1.76041713
 Ti      1.22816291      9.59460746     -1.76515972
 Ti      1.22709747     15.51555674     -1.75892704
 Ti      7.81592619      0.70815691     -1.75287415
 Ti     14.38158119      0.71494161     -1.74474248
 Ti      7.80441092      3.67854378     -1.75257935
 Ti     14.37667801      3.68492053     -1.74500898
 Ti      7.81736303      6.63892084     -1.77625323
 Ti     14.39331679      6.64344134     -1.77549943
 Ti      7.83696388     12.55658465     -1.73913837
 Ti     14.41282109     12.55049553     -1.76073407
 Ti      7.83299588      9.59648136     -1.75768511
 Ti     14.39561168      9.59560913     -1.76648022
 Ti      7.81589198     15.51260085     -1.75790650
 Ti     14.40934091     15.51010728     -1.75630241
 Ti      4.52199207      2.19050397     -1.59161227
 Ti      4.52373824      5.15426536     -1.55230957
 Ti      4.52843688      8.11879900     -1.54955447
 Ti      4.52242957     14.02788300     -1.58772473
 Ti      4.53079138     11.07968169     -1.59126437
 Ti      4.51358792     17.00203362     -1.57907569
 Ti     11.08823270      2.18916184     -1.58733264
 Ti     17.65604673      2.19783817     -1.55248141
 Ti     11.08432363      5.15913192     -1.58883355
 Ti     17.66893902      5.16127300     -1.56595475
 Ti     11.08575948      8.12733818     -1.56890861
 Ti     17.68745030      8.12028738     -1.56060303
 Ti     11.11629116     14.03082356     -1.56258642
 Ti     17.68818458     14.03100085     -1.55812337
 Ti     11.09881007     11.08605676     -1.56207204
 Ti     17.69462097     11.07650451     -1.55489374
 Ti     11.10410228     16.98111534     -1.56242844
 Ti     17.67622831     16.99175535     -1.55176830
 Ti      1.30369970      2.19477698     -5.04772806
 Ti      1.31326858      5.12839073     -5.06048784
 Ti      1.30359635      8.09782824     -5.06656126
 Ti      1.29820627     14.00489532     -5.04681690
 Ti      1.30725828     11.07251972     -5.06745828
 Ti      1.18973891     16.97985252     -5.06112726
 Ti      7.88664190      2.17917051     -5.02767245
 Ti     14.46226053      2.18925818     -5.03217217
 Ti      7.90023798      5.11224747     -5.08518336
 Ti     14.48015323      5.11228181     -5.08395591
 Ti      7.89220098      8.10050586     -5.10119657
 Ti     14.47471673      8.10258285     -5.09878726
 Ti      7.90136460     14.00015542     -5.07435167
 Ti     14.48080143     14.05402072     -5.10816406
 Ti      7.90055760     11.08069982     -5.06893140
 Ti     14.49247153     11.08398312     -5.09432306
 Ti      7.79144382     16.97928002     -5.08718989
 Ti     14.46501303     16.99934982     -5.08067258
 Ti      4.50271475      0.67853286     -4.94553993
 Ti      4.59738169      3.66118026     -4.86025121
 Ti      4.58795066      6.64821928     -4.84268471
 Ti      4.60536881     12.54970432     -4.94445295
 Ti      4.55390161      9.59821891     -4.86271729
 Ti      4.49358231     15.51842562     -4.83720531
 Ti     11.07892972      0.67118858     -4.85049841
 Ti     17.67039963      0.74986841     -4.84503371
 Ti     11.18252030      3.65473495     -4.85592691
 Ti     17.76770073      3.67433079     -4.85125511
 Ti     11.15972404      6.63934225     -4.84267761
 Ti     17.67063633      6.63780116     -4.84905131
 Ti     11.17112152     12.54017942     -4.85760201
 Ti     17.76086193     12.53997692     -4.85494921
 Ti     11.16798488      9.57195295     -4.84076381
 Ti     17.76496603      9.55830793     -4.84740701
 Ti     11.15998408     15.52326962     -4.85603701
 Ti     17.68720513     15.52292102     -4.85539531
  O      4.50839834      0.71926992     -0.34010255
  O      4.51180337      3.65916205     -0.33721896
  O      4.51887021      6.64521145     -0.32875073
  O      4.51161413     12.54452216     -0.34718719
  O      4.51399177      9.60207771     -0.33527885
  O      4.50858683     15.51999133     -0.34330149
  O     11.09212688      0.71909360     -0.33393099
  O     17.67306178      0.71960864     -0.32624871
  O     11.08613898      3.66660444     -0.33859022
  O     17.67187301      3.67579707     -0.33129425
  O     11.08687446      6.64625509     -0.33282806
  O     17.67882754      6.64937818     -0.33545907
  O     11.09791677     12.54805853     -0.32934449
  O     17.68737917     12.54486418     -0.32962540
  O     11.08851999      9.59698890     -0.33086711
  O     17.68149603      9.59505575     -0.33078478
  O     11.10075215     15.51551655     -0.32912311
  O     17.68061647     15.52098124     -0.32755178
  O      2.52847458      2.19707998     -1.67679718
  O      2.52832193      5.15681189     -1.59992168
  O      2.53206906      8.11526864     -1.59912302
  O      2.53200488     14.03278665     -1.67630701
  O      2.53590867     11.07698556     -1.67230927
  O      2.52677125     17.00029427     -1.67740184
  O      9.11406052      2.19884860     -1.67864147
  O     15.66027481      2.20128230     -1.60682690
  O      9.11371744      5.15178411     -1.67959564
  O     15.68312353      5.15606203     -1.67034020
  O      9.11588751      8.11405535     -1.67463941
  O     15.69644398      8.11745240     -1.67484631
  O      9.12073918     14.04147867     -1.59814875
  O     15.69885201     14.03604208     -1.59316166
  O      9.11817370     11.07935990     -1.59758737
  O     15.69852913     11.07306338     -1.59923402
  O      9.11734449     16.99008436     -1.59691019
  O     15.68684695     16.99659036     -1.59685671
  O     -0.10072615      2.20175982     -1.60244580
  O     -0.09579378      5.15240906     -1.67670630
  O     -0.07514011      8.11249668     -1.67802483
  O     -0.07997509     14.03686181     -1.67843142
  O     -0.06251463     11.07923762     -1.67655237
  O     -0.08890155     16.99510939     -1.61109102
  O      6.53071700      2.19032508     -1.67172479
  O     13.06451304      2.19708269     -1.67898259
  O      6.52627547      5.15988572     -1.66892877
  O     13.06317794      5.16288646     -1.67592260
  O      6.53688575      8.12127107     -1.67584601
  O     13.06545909      8.11712948     -1.67680757
  O      6.53388118     14.03021317     -1.67708590
  O     13.11354058     14.03292781     -1.68743175
  O      6.54354296     11.07890128     -1.68159552
  O     13.07787612     11.07697217     -1.68239403
  O      6.51999909     16.98999569     -1.67025951
  O     13.08496487     16.98988190     -1.68200143
  O      4.53786602      0.70758103     -2.98954359
  O      4.54403684      3.67864201     -2.95059834
  O      4.54353763      6.63931244     -2.94590286
  O      4.54931403     12.55001857     -3.00414110
  O      4.54615327      9.59563606     -2.95107735
  O      4.54267882     15.51674688     -2.94921836
  O     11.04506561      0.70543087     -2.94757649
  O     17.62852426      0.71755324     -2.94208397
  O     11.12606359      3.67523189     -2.95208329
  O     17.64228330      3.67077609     -2.95163973
  O     11.04922967      6.64422526     -2.95127756
  O     17.63499851      6.63701585     -2.94918907
  O     11.04627626     12.55632668     -2.94631192
  O     17.63298724     12.55424168     -2.94694517
  O     11.04425365      9.59476593     -2.94705195
  O     17.71067856      9.59785626     -2.94637882
  O     11.11407381     15.51567955     -2.94738607
  O     17.62761844     15.51867240     -2.94770046
  O      1.16730567      0.72032719     -3.64614811
  O      1.24142946      3.67323106     -3.64559693
  O      1.25422791      6.63149921     -3.64836590
  O      1.24573761     12.55074781     -3.65661944
  O      1.24698371      9.58996293     -3.65482874
  O      1.24079256     15.51415465     -3.64850943
  O      7.84755798      0.65822843     -3.65317225
  O     14.42834009      0.70876926     -3.65114366
  O      7.75772666      3.67282632     -3.65992126
  O     14.41503644      3.67239459     -3.65396500
  O      7.84214381      6.64068554     -3.67133771
  O     14.41796467      6.63181367     -3.66446899
  O      7.92675950     12.55284276     -3.66165811
  O     14.51267915     12.55925359     -3.66583031
  O      7.92393007      9.59868971     -3.66747811
  O     14.42720808      9.60368487     -3.66342736
  O      7.85000805     15.50868029     -3.66170648
  O     14.51404225     15.51566398     -3.66595195
  O      5.75671982      2.16324301     -5.01435958
  O      5.75975303      5.15448081     -5.01530183
  O      5.76556015      8.14428322     -5.01539114
  O      5.75653567     14.03557632     -5.01636649
  O      5.78411909     11.08130282     -5.09072135
  O      5.76834411     16.97608362     -5.06744863
  O     12.34626893      2.16631666     -5.01136403
  O     18.92693223      2.16872457     -5.01182269
  O     12.35319463      5.15333855     -5.01211275
  O     18.92479343      5.15702773     -5.01288125
  O     12.38480073      8.10072512     -4.98445473
  O     18.93235633      8.05623231     -5.01259674
  O     12.35286853     14.03080392     -5.00936198
  O     18.92498483     14.03379252     -5.01470270
  O     12.37642473     11.06886562     -4.98555887
  O     18.93427013     11.04978872     -5.01564865
  O     12.37237753     16.98851532     -4.98794386
  O     18.92340113     17.02074082     -5.01352979
  O      3.22044698      2.16860736     -5.01483320
  O      3.22535877      5.15561492     -5.01428870
  O      3.22541749      8.14656077     -5.01556500
  O      3.21913862     14.03265332     -5.01720782
  O      3.22122825     11.05180552     -5.01514675
  O      3.19055941     16.98232112     -4.99293827
  O      9.80662525      2.17046481     -5.01076665
  O     16.39100653      2.17423529     -5.01482192
  O      9.80898175      5.15497252     -5.01507870
  O     16.39253663      5.14959923     -5.01645290
  O      9.91779221      8.13950322     -5.26757440
  O     16.39480123      8.14363750     -5.01513968
  O      9.93210408     14.03336686     -5.19536888
  O     16.50904620     14.03254601     -5.20296988
  O      9.94031990     11.07440600     -5.19705723
  O     16.52457610     11.06721736     -5.19701748
  O      9.89109481     16.97561302     -5.19278317
  O     16.48915131     16.99946280     -5.19553072
  O      1.25088733      0.71851802     -6.18411049
  O      1.24511498      3.66782190     -6.18930110
  O      1.25127594      6.62532430     -6.18717196
  O      1.25087407     12.55127117     -6.19242414
  O      1.24291261      9.58949157     -6.18831295
  O      1.24441005     15.50623474     -6.18118684
  O      7.75313584      0.71934483     -6.18526678
  O     14.41859379      0.72195880     -6.18694327
  O      7.83046563      3.64396538     -6.19141794
  O     14.34234357      3.65447390     -6.19246203
  O      7.75205245      6.62230557     -6.19408800
  O     14.42223371      6.61949175     -6.19834840
  O      7.75339785     12.55076102     -6.19457837
  O     14.33862573     12.56087697     -6.19719842
  O      7.82727799      9.60001139     -6.19093921
  O     14.41597948      9.59571130     -6.19876855
  O      7.75657171     15.49529594     -6.18846092
  O     14.33832771     15.52441085     -6.20041601
 Au      9.69286778     10.73980916      8.52068569
 Au     12.51183271     11.15738734      8.37965339
 Au      6.83763705      6.97496670      7.66525396
 Au     14.56027055     12.57130420      7.59592642
 Au      9.24076955      7.89827230      8.29130575
 Au     11.53162243      8.84646732      9.36696317
 Au      7.16695055      9.70174632      7.75179853
 Au      7.63968128     12.35212789      7.77865241
