439
Energy = -13269.72775587 au
 Ti      1.57153762      0.72765765      4.67650282
 Ti      1.57864346      3.69073342      4.68239280
 Ti      1.57428561      6.63672720      4.67116510
 Ti      1.59646180     12.54634804      4.67476207
 Ti      1.55297036      9.59215271      4.66796410
 Ti      1.59994028     15.49979511      4.67676374
 Ti      7.86991045      0.71676160      4.73217558
 Ti     14.19264750      0.72403155      4.74413040
 Ti      7.86849114      3.66535023      4.72329743
 Ti     14.19186663      3.67059135      4.74577208
 Ti      7.88654187      6.61974358      4.74998558
 Ti     14.19618349      6.62294752      4.73945236
 Ti      7.88120678     12.51515695      4.81459741
 Ti     14.23078660     12.54257344      4.73416228
 Ti      7.87544527      9.56570984      4.75806867
 Ti     14.17041548      9.59092673      4.74184731
 Ti      7.88801691     15.48522933      4.73512750
 Ti     14.22174288     15.49823979      4.73584422
 Ti      4.71722204      2.21475755      5.30752370
 Ti      4.71892972      5.16008216      5.29047117
 Ti      4.69943912      8.14859907      5.20547326
 Ti      4.71469099     14.07444386      5.27317355
 Ti      4.70238739     11.11266516      5.19409367
 Ti      4.72297723     16.99661620      5.29287233
 Ti     11.02790485      2.13625039      5.28763031
 Ti     17.32542244      2.19476474      5.16287238
 Ti     11.03179676      4.92504943      4.86996703
 Ti     17.30007642      5.14567331      5.14224064
 Ti     11.01828246      8.33276580      4.90333381
 Ti     17.30611389      8.10996705      5.16731295
 Ti     11.04414920     14.06557802      5.28807697
 Ti     17.33508930     14.02471437      5.15028647
 Ti     11.03999600     11.16295191      5.27144083
 Ti     17.32410825     11.06625247      5.13687842
 Ti     11.03825627     16.96316070      5.28761323
 Ti     17.32663270     16.96915243      5.13282433
  O      4.72860740      0.71635874      3.75670527
  O      4.72489734      3.69563014      3.75924537
  O      4.72479515      6.61740741      3.74836790
  O      4.65514052     12.52642696      3.69786442
  O      4.70943117      9.53759780      3.69626007
  O      4.65809143     15.50042510      3.75412912
  O     11.03014369      0.71789245      3.76457828
  O     17.25538936      0.72047042      3.65741618
  O     11.03233737      3.61497771      3.67056006
  O     17.18772141      3.69792584      3.65589278
  O     10.95910574      6.62172666      3.75896766
  O     17.18657491      6.62503569      3.65813892
  O     11.02318219     12.52754480      3.75784878
  O     17.18387598     12.52845927      3.63599884
  O     11.02866244      9.62508922      3.67034519
  O     17.25336866      9.59555291      3.65110475
  O     11.02231732     15.51014913      3.75808997
  O     17.18580108     15.50655819      3.65051408
  O      4.72874749      0.73184653      6.38601820
  O      4.72705124      3.69868180      6.38670367
  O      4.74642962      6.67234079      6.38160132
  O      4.80678934      9.60576357      6.32449847
  O      4.73477587     12.53055560      6.31891069
  O      4.72810623     15.50768306      6.38205060
  O     11.03154407      0.70774882      6.39741478
  O     17.41161798      0.71919491      6.23665654
  O     11.02776079      3.70111909      6.24352674
  O     17.41119057      3.68985923      6.23608362
  O     17.34252652      6.62732630      6.23543583
  O     11.03153257     12.59041372      6.39603605
  O     17.41011158     12.53634021      6.22837037
  O     11.03863716      9.60066970      6.22268696
  O     17.40822642      9.59532483      6.23505041
  O     11.03107985     15.50672233      6.39198405
  O     17.41208331     15.49768907      6.23253198
  O      2.76528442      2.20797438      5.12302965
  O      2.76764231      5.18200302      5.13019896
  O      2.76382130      8.11693253      5.12516382
  O      2.75424030     14.01769908      5.19788840
  O      2.76351383     11.03103623      5.12456270
  O      2.76540455     17.00086330      5.12798954
  O      9.06418019      2.19752530      5.12347864
  O     15.35536271      2.20436149      5.19619104
  O      9.09830429      5.12990181      5.04535339
  O     15.29724083      5.12951383      5.27532785
  O      9.11145645      8.05012916      5.12878373
  O     15.30687173      8.12166314      5.20736503
  O      9.07176289     14.02044602      5.12048323
  O     15.35944149     14.01849955      5.20516170
  O      9.06657625     11.03980817      5.11741313
  O     15.35291611     11.03027575      5.19729891
  O      9.06895843     16.98816458      5.12634929
  O     15.35814366     16.99815389      5.20173491
  O      0.38987988      2.21195147      4.96314751
  O      0.38181463      5.17860767      4.96575154
  O      0.38001639      8.10817043      4.96636647
  O      0.38623612     14.01812229      4.88928472
  O      0.39165987     11.09535334      4.96286400
  O      0.39343623     16.94398497      4.96334140
  O      6.67901198      2.20094297      5.12433383
  O     12.98557843      2.20174919      5.11838954
  O      6.69036064      5.12900692      5.12362234
  O     12.92566408      5.19412521      5.04743066
  O      6.68338595      8.10221120      5.02951699
  O     12.92299897      8.04772674      5.05126576
  O      6.66628439     14.02996133      5.10496475
  O     12.98680786     14.01866383      5.04835577
  O      6.64271311     11.02721916      4.94788865
  O     12.98856641     11.09613480      5.11858957
  O      6.68316970     16.94673375      5.12389535
  O     12.98934207     16.94781555      5.11674658
 Ti      1.57664787      2.20279882      1.49566643
 Ti      1.57614172      5.15956589      1.50581242
 Ti      1.58661514      8.11440782      1.47617334
 Ti      1.55693108     14.02219672      1.49952222
 Ti      1.57369113     11.07261167      1.50072623
 Ti      1.57239772     16.97060558      1.50270679
 Ti      7.88050654      2.21109671      1.50268244
 Ti     14.25194220      2.20312694      1.50287706
 Ti      7.87792251      5.17485147      1.51149398
 Ti     14.24229064      5.16705384      1.51391398
 Ti      7.88176087      8.12500011      1.50212710
 Ti     14.25428977      8.11177416      1.49985259
 Ti      7.87810588     14.00408621      1.52699265
 Ti     14.19769795     14.02217891      1.49449828
 Ti      7.88202329     11.07484644      1.57212881
 Ti     14.25215553     11.07034474      1.50615057
 Ti      7.88094222     16.96265889      1.51061568
 Ti     14.21896772     16.97583211      1.51482332
 Ti      4.72811972      0.72033708      1.92532023
 Ti      4.71684212      3.67102046      1.92415980
 Ti      4.72216532      6.62112020      1.91563592
 Ti      4.70762409     12.53549499      1.86544386
 Ti      4.72358212      9.57945778      1.86138279
 Ti      4.69686068     15.49386061      1.90473017
 Ti     11.04257882      0.72639096      1.92798065
 Ti     17.39323433      0.71899270      1.76464936
 Ti     11.08342758      3.66394782      1.60858466
 Ti     17.35914009      3.68437452      1.76832281
 Ti     11.02918674      6.63325918      1.86953241
 Ti     17.38189122      6.63622396      1.77781235
 Ti     11.03180618     12.54580991      1.92542940
 Ti     17.34478902     12.54925144      1.76660484
 Ti     11.09493145      9.60363342      1.64018095
 Ti     17.40076561      9.59401089      1.77163808
 Ti     11.04716700     15.50738267      1.91123050
 Ti     17.33417365     15.49838220      1.75839708
  O      1.65050537      0.71926659      2.89155391
  O      1.65396586      3.69062418      2.89820274
  O      1.65562643      6.62485623      2.88640278
  O      1.65915084     12.53418269      2.88844800
  O      1.65153472      9.59726118      2.88825029
  O      1.65956718     15.50452974      2.88875921
  O      7.87589472      0.71860312      2.95384018
  O     14.25821206      0.72670212      2.95799240
  O      7.87537292      3.68562236      2.94416857
  O     14.25960448      3.69335108      2.95912319
  O      7.87967466      6.61692073      2.95320970
  O     14.26420543      6.62279402      2.95536588
  O      7.87961167     12.53117618      2.96583130
  O     14.26122899     12.52599859      2.95211897
  O      7.88650908      9.54088056      2.95661428
  O     14.25642784      9.59962179      2.96060766
  O      7.87814193     15.50476657      2.95414247
  O     14.26179424     15.50874744      2.95393635
  O      5.96544096      2.20280908      1.68237898
  O      5.95842306      5.14015733      1.67817151
  O      5.96468261      8.09635283      1.67380620
  O      5.94454441     14.02030011      1.68221291
  O      5.96104329     11.04814909      1.67922437
  O      5.94907434     16.95193286      1.68422797
  O     12.29265529      2.20512546      1.69378827
  O     18.62659424      2.21222493      1.83534869
  O     12.28699133      5.17296632      1.75385015
  O     18.61887447      5.14486060      1.83464566
  O     12.29210349      8.10661722      1.75816641
  O     18.64298446      8.10765953      1.83587196
  O     12.28639683     14.01862409      1.76226817
  O     18.60928782     14.02075740      1.83440815
  O     12.28915680     11.08216371      1.69651485
  O     18.62128031     11.08993185      1.83240283
  O     12.28832592     16.99238810      1.76123535
  O     18.61804062     16.94850422      1.83436650
  O      3.46930729      2.20132730      1.68787386
  O      3.47173280      5.13741292      1.68329704
  O      3.46815970      8.10080634      1.68037265
  O      3.46122583     14.01774392      1.67766602
  O      3.46711690     11.04125384      1.67661813
  O      3.46733405     16.99531789      1.68415820
  O      9.78750756      2.21112653      1.68221072
  O     16.13775389      2.20194093      1.53080921
  O      9.79161307      5.13242014      1.67942196
  O     16.13808429      5.17964364      1.52558944
  O      9.79430907      8.11252417      1.67804102
  O     16.14286479      8.11453346      1.53055991
  O      9.78553444     14.02074013      1.68932931
  O     16.10751220     14.01941070      1.52917788
  O      9.79525755     11.03888367      1.68545259
  O     16.13880840     11.03880920      1.52594365
  O      9.78752436     16.99086032      1.69056967
  O     16.13123063     16.99708330      1.53285615
  O      1.42421400      0.72115890      0.31652707
  O      1.42561526      3.68433960      0.31694327
  O      1.42293358      6.62279775      0.31822487
  O      1.43048408     12.54142739      0.31021952
  O      1.42404863      9.60265583      0.31400657
  O      1.42906044     15.50305885      0.31268080
  O      7.86975862      0.72387690      0.38213094
  O     14.17754216      0.72480298      0.38983398
  O      7.87451043      3.68883951      0.36153940
  O     14.17853413      3.69455099      0.38829381
  O      7.87725234      6.62484913      0.35753055
  O     14.17930553      6.63137884      0.38402495
  O      7.87169608     12.52760518      0.39224196
  O     14.17890141     12.53516659      0.38530825
  O      7.87455220      9.60008935      0.38572423
  O     14.17626193      9.58981683      0.38639835
  O      7.86853163     15.49706993      0.38761874
  O     14.17526740     15.50827502      0.38799306
 Ti      1.21202878      0.71942337     -1.75752175
 Ti      1.21975963      3.67805472     -1.74110369
 Ti      1.22111716      6.63676035     -1.75533981
 Ti      1.22849042     12.55412208     -1.76041713
 Ti      1.22816291      9.59460746     -1.76515972
 Ti      1.22709747     15.51555674     -1.75892704
 Ti      7.81592619      0.70815691     -1.75287415
 Ti     14.38158119      0.71494161     -1.74474248
 Ti      7.80441092      3.67854378     -1.75257935
 Ti     14.37667801      3.68492053     -1.74500898
 Ti      7.81736303      6.63892084     -1.77625323
 Ti     14.39331679      6.64344134     -1.77549943
 Ti      7.83696388     12.55658465     -1.73913837
 Ti     14.41282109     12.55049553     -1.76073407
 Ti      7.83299588      9.59648136     -1.75768511
 Ti     14.39561168      9.59560913     -1.76648022
 Ti      7.81589198     15.51260085     -1.75790650
 Ti     14.40934091     15.51010728     -1.75630241
 Ti      4.52199207      2.19050397     -1.59161227
 Ti      4.52373824      5.15426536     -1.55230957
 Ti      4.52843688      8.11879900     -1.54955447
 Ti      4.52242957     14.02788300     -1.58772473
 Ti      4.53079138     11.07968169     -1.59126437
 Ti      4.51358792     17.00203362     -1.57907569
 Ti     11.08823270      2.18916184     -1.58733264
 Ti     17.65604673      2.19783817     -1.55248141
 Ti     11.08432363      5.15913192     -1.58883355
 Ti     17.66893902      5.16127300     -1.56595475
 Ti     11.08575948      8.12733818     -1.56890861
 Ti     17.68745030      8.12028738     -1.56060303
 Ti     11.11629116     14.03082356     -1.56258642
 Ti     17.68818458     14.03100085     -1.55812337
 Ti     11.09881007     11.08605676     -1.56207204
 Ti     17.69462097     11.07650451     -1.55489374
 Ti     11.10410228     16.98111534     -1.56242844
 Ti     17.67622831     16.99175535     -1.55176830
 Ti      1.30369970      2.19477698     -5.04772806
 Ti      1.31326858      5.12839073     -5.06048784
 Ti      1.30359635      8.09782824     -5.06656126
 Ti      1.29820627     14.00489532     -5.04681690
 Ti      1.30725828     11.07251972     -5.06745828
 Ti      1.18973891     16.97985252     -5.06112726
 Ti      7.88664190      2.17917051     -5.02767245
 Ti     14.46226053      2.18925818     -5.03217217
 Ti      7.90023798      5.11224747     -5.08518336
 Ti     14.48015323      5.11228181     -5.08395591
 Ti      7.89220098      8.10050586     -5.10119657
 Ti     14.47471673      8.10258285     -5.09878726
 Ti      7.90136460     14.00015542     -5.07435167
 Ti     14.48080143     14.05402072     -5.10816406
 Ti      7.90055760     11.08069982     -5.06893140
 Ti     14.49247153     11.08398312     -5.09432306
 Ti      7.79144382     16.97928002     -5.08718989
 Ti     14.46501303     16.99934982     -5.08067258
 Ti      4.50271475      0.67853286     -4.94553993
 Ti      4.59738169      3.66118026     -4.86025121
 Ti      4.58795066      6.64821928     -4.84268471
 Ti      4.60536881     12.54970432     -4.94445295
 Ti      4.55390161      9.59821891     -4.86271729
 Ti      4.49358231     15.51842562     -4.83720531
 Ti     11.07892972      0.67118858     -4.85049841
 Ti     17.67039963      0.74986841     -4.84503371
 Ti     11.18252030      3.65473495     -4.85592691
 Ti     17.76770073      3.67433079     -4.85125511
 Ti     11.15972404      6.63934225     -4.84267761
 Ti     17.67063633      6.63780116     -4.84905131
 Ti     11.17112152     12.54017942     -4.85760201
 Ti     17.76086193     12.53997692     -4.85494921
 Ti     11.16798488      9.57195295     -4.84076381
 Ti     17.76496603      9.55830793     -4.84740701
 Ti     11.15998408     15.52326962     -4.85603701
 Ti     17.68720513     15.52292102     -4.85539531
  O      4.50839834      0.71926992     -0.34010255
  O      4.51180337      3.65916205     -0.33721896
  O      4.51887021      6.64521145     -0.32875073
  O      4.51161413     12.54452216     -0.34718719
  O      4.51399177      9.60207771     -0.33527885
  O      4.50858683     15.51999133     -0.34330149
  O     11.09212688      0.71909360     -0.33393099
  O     17.67306178      0.71960864     -0.32624871
  O     11.08613898      3.66660444     -0.33859022
  O     17.67187301      3.67579707     -0.33129425
  O     11.08687446      6.64625509     -0.33282806
  O     17.67882754      6.64937818     -0.33545907
  O     11.09791677     12.54805853     -0.32934449
  O     17.68737917     12.54486418     -0.32962540
  O     11.08851999      9.59698890     -0.33086711
  O     17.68149603      9.59505575     -0.33078478
  O     11.10075215     15.51551655     -0.32912311
  O     17.68061647     15.52098124     -0.32755178
  O      2.52847458      2.19707998     -1.67679718
  O      2.52832193      5.15681189     -1.59992168
  O      2.53206906      8.11526864     -1.59912302
  O      2.53200488     14.03278665     -1.67630701
  O      2.53590867     11.07698556     -1.67230927
  O      2.52677125     17.00029427     -1.67740184
  O      9.11406052      2.19884860     -1.67864147
  O     15.66027481      2.20128230     -1.60682690
  O      9.11371744      5.15178411     -1.67959564
  O     15.68312353      5.15606203     -1.67034020
  O      9.11588751      8.11405535     -1.67463941
  O     15.69644398      8.11745240     -1.67484631
  O      9.12073918     14.04147867     -1.59814875
  O     15.69885201     14.03604208     -1.59316166
  O      9.11817370     11.07935990     -1.59758737
  O     15.69852913     11.07306338     -1.59923402
  O      9.11734449     16.99008436     -1.59691019
  O     15.68684695     16.99659036     -1.59685671
  O     -0.10072615      2.20175982     -1.60244580
  O     -0.09579378      5.15240906     -1.67670630
  O     -0.07514011      8.11249668     -1.67802483
  O     -0.07997509     14.03686181     -1.67843142
  O     -0.06251463     11.07923762     -1.67655237
  O     -0.08890155     16.99510939     -1.61109102
  O      6.53071700      2.19032508     -1.67172479
  O     13.06451304      2.19708269     -1.67898259
  O      6.52627547      5.15988572     -1.66892877
  O     13.06317794      5.16288646     -1.67592260
  O      6.53688575      8.12127107     -1.67584601
  O     13.06545909      8.11712948     -1.67680757
  O      6.53388118     14.03021317     -1.67708590
  O     13.11354058     14.03292781     -1.68743175
  O      6.54354296     11.07890128     -1.68159552
  O     13.07787612     11.07697217     -1.68239403
  O      6.51999909     16.98999569     -1.67025951
  O     13.08496487     16.98988190     -1.68200143
  O      4.53786602      0.70758103     -2.98954359
  O      4.54403684      3.67864201     -2.95059834
  O      4.54353763      6.63931244     -2.94590286
  O      4.54931403     12.55001857     -3.00414110
  O      4.54615327      9.59563606     -2.95107735
  O      4.54267882     15.51674688     -2.94921836
  O     11.04506561      0.70543087     -2.94757649
  O     17.62852426      0.71755324     -2.94208397
  O     11.12606359      3.67523189     -2.95208329
  O     17.64228330      3.67077609     -2.95163973
  O     11.04922967      6.64422526     -2.95127756
  O     17.63499851      6.63701585     -2.94918907
  O     11.04627626     12.55632668     -2.94631192
  O     17.63298724     12.55424168     -2.94694517
  O     11.04425365      9.59476593     -2.94705195
  O     17.71067856      9.59785626     -2.94637882
  O     11.11407381     15.51567955     -2.94738607
  O     17.62761844     15.51867240     -2.94770046
  O      1.16730567      0.72032719     -3.64614811
  O      1.24142946      3.67323106     -3.64559693
  O      1.25422791      6.63149921     -3.64836590
  O      1.24573761     12.55074781     -3.65661944
  O      1.24698371      9.58996293     -3.65482874
  O      1.24079256     15.51415465     -3.64850943
  O      7.84755798      0.65822843     -3.65317225
  O     14.42834009      0.70876926     -3.65114366
  O      7.75772666      3.67282632     -3.65992126
  O     14.41503644      3.67239459     -3.65396500
  O      7.84214381      6.64068554     -3.67133771
  O     14.41796467      6.63181367     -3.66446899
  O      7.92675950     12.55284276     -3.66165811
  O     14.51267915     12.55925359     -3.66583031
  O      7.92393007      9.59868971     -3.66747811
  O     14.42720808      9.60368487     -3.66342736
  O      7.85000805     15.50868029     -3.66170648
  O     14.51404225     15.51566398     -3.66595195
  O      5.75671982      2.16324301     -5.01435958
  O      5.75975303      5.15448081     -5.01530183
  O      5.76556015      8.14428322     -5.01539114
  O      5.75653567     14.03557632     -5.01636649
  O      5.78411909     11.08130282     -5.09072135
  O      5.76834411     16.97608362     -5.06744863
  O     12.34626893      2.16631666     -5.01136403
  O     18.92693223      2.16872457     -5.01182269
  O     12.35319463      5.15333855     -5.01211275
  O     18.92479343      5.15702773     -5.01288125
  O     12.38480073      8.10072512     -4.98445473
  O     18.93235633      8.05623231     -5.01259674
  O     12.35286853     14.03080392     -5.00936198
  O     18.92498483     14.03379252     -5.01470270
  O     12.37642473     11.06886562     -4.98555887
  O     18.93427013     11.04978872     -5.01564865
  O     12.37237753     16.98851532     -4.98794386
  O     18.92340113     17.02074082     -5.01352979
  O      3.22044698      2.16860736     -5.01483320
  O      3.22535877      5.15561492     -5.01428870
  O      3.22541749      8.14656077     -5.01556500
  O      3.21913862     14.03265332     -5.01720782
  O      3.22122825     11.05180552     -5.01514675
  O      3.19055941     16.98232112     -4.99293827
  O      9.80662525      2.17046481     -5.01076665
  O     16.39100653      2.17423529     -5.01482192
  O      9.80898175      5.15497252     -5.01507870
  O     16.39253663      5.14959923     -5.01645290
  O      9.91779221      8.13950322     -5.26757440
  O     16.39480123      8.14363750     -5.01513968
  O      9.93210408     14.03336686     -5.19536888
  O     16.50904620     14.03254601     -5.20296988
  O      9.94031990     11.07440600     -5.19705723
  O     16.52457610     11.06721736     -5.19701748
  O      9.89109481     16.97561302     -5.19278317
  O     16.48915131     16.99946280     -5.19553072
  O      1.25088733      0.71851802     -6.18411049
  O      1.24511498      3.66782190     -6.18930110
  O      1.25127594      6.62532430     -6.18717196
  O      1.25087407     12.55127117     -6.19242414
  O      1.24291261      9.58949157     -6.18831295
  O      1.24441005     15.50623474     -6.18118684
  O      7.75313584      0.71934483     -6.18526678
  O     14.41859379      0.72195880     -6.18694327
  O      7.83046563      3.64396538     -6.19141794
  O     14.34234357      3.65447390     -6.19246203
  O      7.75205245      6.62230557     -6.19408800
  O     14.42223371      6.61949175     -6.19834840
  O      7.75339785     12.55076102     -6.19457837
  O     14.33862573     12.56087697     -6.19719842
  O      7.82727799      9.60001139     -6.19093921
  O     14.41597948      9.59571130     -6.19876855
  O      7.75657171     15.49529594     -6.18846092
  O     14.33832771     15.52441085     -6.20041601
 Au      9.04750985      8.13606025      8.37503782
 Au      9.31984163     10.92223206      8.40975708
 Au     11.41691910      9.26930899      9.03208198
 Au      6.85662075      9.73713343      7.76680503
 Au      7.28557138     12.48187015      7.62358174
 Au      6.68825684      6.91535501      7.79541139
 Au      9.06915413      5.45699278      7.83824558
 Au     11.43857560      6.79676216      7.56002677
