439
Energy = -13269.71807873 au
 Ti      1.57084538      0.72808848      4.67683323
 Ti      1.57981011      3.69202696      4.68224943
 Ti      1.58480183      6.63697220      4.67119895
 Ti      1.59504091     12.54468134      4.67725782
 Ti      1.57306416      9.59289164      4.66890968
 Ti      1.60496028     15.49810496      4.67690355
 Ti      7.86772908      0.73077842      4.73506907
 Ti     14.18954513      0.72747723      4.74296948
 Ti      7.87594520      3.69333676      4.73878472
 Ti     14.19636173      3.67723899      4.74306955
 Ti      7.90458308      6.64869822      4.74430125
 Ti     14.19004946      6.63133348      4.74335971
 Ti      7.87352940     12.56476517      4.72883361
 Ti     14.20391103     12.55499221      4.72433334
 Ti      7.88392936      9.60914962      4.82957855
 Ti     14.17474993      9.60417735      4.80807779
 Ti      7.88997164     15.50529243      4.73391741
 Ti     14.23519179     15.50176896      4.73341745
 Ti      4.71503023      2.20640563      5.31384025
 Ti      4.72519743      5.15998837      5.29584649
 Ti      4.71886996      8.11213593      5.29711395
 Ti      4.71761879     14.02730855      5.31639014
 Ti      4.71355478     11.07896487      5.28778639
 Ti      4.71974777     16.97454909      5.29414502
 Ti     11.03061746      2.17351375      5.32111291
 Ti     17.32487312      2.19737372      5.16182630
 Ti     11.03497346      4.97128224      4.73757947
 Ti     17.30627047      5.14629962      5.13957988
 Ti     11.03459851      8.36373467      4.81210979
 Ti     17.32851963      8.10823915      5.13734707
 Ti     11.04237896     14.08706065      5.28548576
 Ti     17.33283181     14.03582806      5.14850892
 Ti     11.02706198     11.19192594      5.23490986
 Ti     17.32416004     11.08651638      5.12660502
 Ti     11.04380090     16.98131271      5.28491775
 Ti     17.32979620     16.97651481      5.13166558
  O      4.72948653      0.71842033      3.75451354
  O      4.72702478      3.69551998      3.75658135
  O      4.72707668      6.62407504      3.75066078
  O      4.65789031     12.53410305      3.75480209
  O      4.72595308      9.59619825      3.75077114
  O      4.65995913     15.50388165      3.75482540
  O     11.03045185      0.72064475      3.77208801
  O     17.25575836      0.72035031      3.65922540
  O     11.02558813      3.55511281      3.67048923
  O     17.18693966      3.69849907      3.65898726
  O     11.00992016      6.62860936      3.74230993
  O     17.24874394      6.62246855      3.63118711
  O     10.96362518     12.58120943      3.75377635
  O     17.18714660     12.52829904      3.63270643
  O     11.02655592      9.68236618      3.61762834
  O     17.25777647      9.60076740      3.62512708
  O     11.02166973     15.51292785      3.75913539
  O     17.18550085     15.50583808      3.65500956
  O      4.72988781      0.72472543      6.38374270
  O      4.72850250      3.69336759      6.38489655
  O      4.73071840      6.63774806      6.37756148
  O      4.80296849      9.59700285      6.38705963
  O      4.73216890     12.53155588      6.38538992
  O      4.72811210     15.50548787      6.38672419
  O     11.03137758      0.71836673      6.40124815
  O     17.41168166      0.72118561      6.23753708
  O     11.03106628      3.76800674      6.24543472
  O     17.41155479      3.69311148      6.23600967
  O     17.34189657      6.63726907      6.22506214
  O     11.03428877     12.59342428      6.39449545
  O     17.41140499     12.53730609      6.22801393
  O     11.03463359      9.60215497      6.15309605
  O     17.33458573      9.59666609      6.23165431
  O     11.02988360     15.51629048      6.39287738
  O     17.41187455     15.50026540      6.23353995
  O      2.76520599      2.20756616      5.12298066
  O      2.76713438      5.17855047      5.12706586
  O      2.76949701      8.11797366      5.12547046
  O      2.75539648     14.01767776      5.19912840
  O      2.76622520     11.03594959      5.13164808
  O      2.76476672     17.00094670      5.12799337
  O      9.06761083      2.20661698      5.12540418
  O     15.35452072      2.20458318      5.19707896
  O      9.12038532      5.18531421      5.11683096
  O     15.29985151      5.13737769      5.27205708
  O      9.13229329      8.09952684      5.10296289
  O     15.35111400      8.10507640      5.11465776
  O      9.06938707     14.03024572      5.13084389
  O     15.35829532     14.02039380      5.20429970
  O      9.06661141     11.10408306      5.12097695
  O     15.34921040     11.09036991      5.18644033
  O      9.06998012     16.99844279      5.12567941
  O     15.35880853     17.00198278      5.20167942
  O      0.38912857      2.21175288      4.96315969
  O      0.38429226      5.17940133      4.96726801
  O      0.38565277      8.11369401      4.96863751
  O      0.38616747     14.01833786      4.88994793
  O      0.38991213     11.09001559      4.96573548
  O      0.39370920     16.94338363      4.96327562
  O      6.68670425      2.21374735      5.12332348
  O     12.98132691      2.20504748      5.12084979
  O      6.70358409      5.18253580      5.13016045
  O     12.92284031      5.18481446      5.04044625
  O      6.69593298      8.09956090      5.10907726
  O     12.92306820      8.05321512      5.03903471
  O      6.67851807     14.02701898      5.12068192
  O     12.97999803     14.02725650      5.05050127
  O      6.67186982     11.10119652      5.04356103
  O     12.95813281     11.10616710      5.04090064
  O      6.68469341     16.95552678      5.12318461
  O     12.98943425     16.95037507      5.11740020
 Ti      1.57809418      2.20223674      1.49627196
 Ti      1.57970619      5.15770981      1.50514857
 Ti      1.59365036      8.11472768      1.47454345
 Ti      1.55911040     14.02195106      1.49908171
 Ti      1.57553335     11.07200668      1.49895624
 Ti      1.57611632     16.96985489      1.50255936
 Ti      7.87308335      2.20659420      1.50771955
 Ti     14.25377293      2.20450669      1.49996963
 Ti      7.87329487      5.17462538      1.50829567
 Ti     14.24931948      5.17553391      1.50967694
 Ti      7.87919262      8.12913483      1.53749351
 Ti     14.26762011      8.12277133      1.52480198
 Ti      7.86808954     14.01103229      1.49189860
 Ti     14.20203355     14.00941763      1.48066583
 Ti      7.87292775     11.04828709      1.55987610
 Ti     14.25618019     11.05211559      1.52630988
 Ti      7.88051313     16.96778566      1.51825194
 Ti     14.22471182     16.97105843      1.51546689
 Ti      4.72556856      0.72149717      1.92979363
 Ti      4.71594006      3.67501540      1.92893366
 Ti      4.72042847      6.62797299      1.92572837
 Ti      4.69208918     12.54464213      1.92380669
 Ti      4.72862395      9.59481163      1.92767582
 Ti      4.70261266     15.49706435      1.91783938
 Ti     11.04645506      0.72040462      1.94184090
 Ti     17.39713522      0.71883912      1.76290952
 Ti     11.07126597      3.64118906      1.59946279
 Ti     17.35749386      3.68369786      1.76832662
 Ti     11.04947397      6.63284355      1.76618171
 Ti     17.40116133      6.63529933      1.76196858
 Ti     11.02247512     12.56182219      1.91582876
 Ti     17.34723141     12.54846171      1.76261187
 Ti     11.09801147      9.62269709      1.62105244
 Ti     17.40576990      9.59496146      1.76437024
 Ti     11.04798283     15.50806823      1.90982659
 Ti     17.33784075     15.49723467      1.75764883
  O      1.65028526      0.71948110      2.89172443
  O      1.65483940      3.69017911      2.89707242
  O      1.65630349      6.62480091      2.88605970
  O      1.65977311     12.53452403      2.88990961
  O      1.65332337      9.59853754      2.88807180
  O      1.65928264     15.50504748      2.88867173
  O      7.87644547      0.72217408      2.95477356
  O     14.25795514      0.72819192      2.95825953
  O      7.87976480      3.69573395      2.95998611
  O     14.26073239      3.69210615      2.95896438
  O      7.88226452      6.62297223      2.95621075
  O     14.26202314      6.61839363      2.95610834
  O      7.88062182     12.58113403      2.94770666
  O     14.26141852     12.53212043      2.94386680
  O      7.87894174      9.59775296      2.97481562
  O     14.25643693      9.60079297      2.97155541
  O      7.87800390     15.50854471      2.95414223
  O     14.26246417     15.50918090      2.95358596
  O      5.96856518      2.20497289      1.68278024
  O      5.96384744      5.14458012      1.67971200
  O      5.96805611      8.10747052      1.68209158
  O      5.94070869     14.02007125      1.68479391
  O      5.95683999     11.08958544      1.68557939
  O      5.95579489     16.95652322      1.68473562
  O     12.29189579      2.20296077      1.69158032
  O     18.62625406      2.21226050      1.83582093
  O     12.28537844      5.13691742      1.75563590
  O     18.62640888      5.13353470      1.83009475
  O     12.29032620      8.10701322      1.75522341
  O     18.65454272      8.11064993      1.83136757
  O     12.28623943     14.02013104      1.76191990
  O     18.61091493     14.02162998      1.83471229
  O     12.28723129     11.09411674      1.69187974
  O     18.62900220     11.09258937      1.82969665
  O     12.28860302     16.99244214      1.76201315
  O     18.61885976     16.94877648      1.83480248
  O      3.47017084      2.20257968      1.68773675
  O      3.47471930      5.14209538      1.68437121
  O      3.47539234      8.11059537      1.68715427
  O      3.46077602     14.01977688      1.68038800
  O      3.47070801     11.04322893      1.68313342
  O      3.46812511     16.99685151      1.68403612
  O      9.78376277      2.20680719      1.68147837
  O     16.13881456      2.20116141      1.53053157
  O      9.79681238      5.13736197      1.68343894
  O     16.14133644      5.18061631      1.52552599
  O      9.79868916      8.10935071      1.68052357
  O     16.14710364      8.11166617      1.52846370
  O      9.78216734     14.02668384      1.68344061
  O     16.11456163     14.02030234      1.52797992
  O      9.79024641     11.05023026      1.67970611
  O     16.14141977     11.04064015      1.52313349
  O      9.78792010     16.99243562      1.69136784
  O     16.13336151     16.99691102      1.53304600
  O      1.42408196      0.72097385      0.31646676
  O      1.42719387      3.68209999      0.31608107
  O      1.42374246      6.62260766      0.31793607
  O      1.43155206     12.54295273      0.30960057
  O      1.42538860      9.60321153      0.31292344
  O      1.42911744     15.50338353      0.31253898
  O      7.87045039      0.72743689      0.38345442
  O     14.17808641      0.72352922      0.39020246
  O      7.87638322      3.69005803      0.36934831
  O     14.17987211      3.69442937      0.38679493
  O      7.87842712      6.63578140      0.37816816
  O     14.17681138      6.63601637      0.38753633
  O      7.87150472     12.52801073      0.38703585
  O     14.17995013     12.52913975      0.38590778
  O      7.87471351      9.59752386      0.38779817
  O     14.17534503      9.58658898      0.38884042
  O      7.86814997     15.50735159      0.38083713
  O     14.17548301     15.50877434      0.38589497
 Ti      1.21202878      0.71942337     -1.75752175
 Ti      1.21975963      3.67805472     -1.74110369
 Ti      1.22111716      6.63676035     -1.75533981
 Ti      1.22849042     12.55412208     -1.76041713
 Ti      1.22816291      9.59460746     -1.76515972
 Ti      1.22709747     15.51555674     -1.75892704
 Ti      7.81592619      0.70815691     -1.75287415
 Ti     14.38158119      0.71494161     -1.74474248
 Ti      7.80441092      3.67854378     -1.75257935
 Ti     14.37667801      3.68492053     -1.74500898
 Ti      7.81736303      6.63892084     -1.77625323
 Ti     14.39331679      6.64344134     -1.77549943
 Ti      7.83696388     12.55658465     -1.73913837
 Ti     14.41282109     12.55049553     -1.76073407
 Ti      7.83299588      9.59648136     -1.75768511
 Ti     14.39561168      9.59560913     -1.76648022
 Ti      7.81589198     15.51260085     -1.75790650
 Ti     14.40934091     15.51010728     -1.75630241
 Ti      4.52199207      2.19050397     -1.59161227
 Ti      4.52373824      5.15426536     -1.55230957
 Ti      4.52843688      8.11879900     -1.54955447
 Ti      4.52242957     14.02788300     -1.58772473
 Ti      4.53079138     11.07968169     -1.59126437
 Ti      4.51358792     17.00203362     -1.57907569
 Ti     11.08823270      2.18916184     -1.58733264
 Ti     17.65604673      2.19783817     -1.55248141
 Ti     11.08432363      5.15913192     -1.58883355
 Ti     17.66893902      5.16127300     -1.56595475
 Ti     11.08575948      8.12733818     -1.56890861
 Ti     17.68745030      8.12028738     -1.56060303
 Ti     11.11629116     14.03082356     -1.56258642
 Ti     17.68818458     14.03100085     -1.55812337
 Ti     11.09881007     11.08605676     -1.56207204
 Ti     17.69462097     11.07650451     -1.55489374
 Ti     11.10410228     16.98111534     -1.56242844
 Ti     17.67622831     16.99175535     -1.55176830
 Ti      1.30369970      2.19477698     -5.04772806
 Ti      1.31326858      5.12839073     -5.06048784
 Ti      1.30359635      8.09782824     -5.06656126
 Ti      1.29820627     14.00489532     -5.04681690
 Ti      1.30725828     11.07251972     -5.06745828
 Ti      1.18973891     16.97985252     -5.06112726
 Ti      7.88664190      2.17917051     -5.02767245
 Ti     14.46226053      2.18925818     -5.03217217
 Ti      7.90023798      5.11224747     -5.08518336
 Ti     14.48015323      5.11228181     -5.08395591
 Ti      7.89220098      8.10050586     -5.10119657
 Ti     14.47471673      8.10258285     -5.09878726
 Ti      7.90136460     14.00015542     -5.07435167
 Ti     14.48080143     14.05402072     -5.10816406
 Ti      7.90055760     11.08069982     -5.06893140
 Ti     14.49247153     11.08398312     -5.09432306
 Ti      7.79144382     16.97928002     -5.08718989
 Ti     14.46501303     16.99934982     -5.08067258
 Ti      4.50271475      0.67853286     -4.94553993
 Ti      4.59738169      3.66118026     -4.86025121
 Ti      4.58795066      6.64821928     -4.84268471
 Ti      4.60536881     12.54970432     -4.94445295
 Ti      4.55390161      9.59821891     -4.86271729
 Ti      4.49358231     15.51842562     -4.83720531
 Ti     11.07892972      0.67118858     -4.85049841
 Ti     17.67039963      0.74986841     -4.84503371
 Ti     11.18252030      3.65473495     -4.85592691
 Ti     17.76770073      3.67433079     -4.85125511
 Ti     11.15972404      6.63934225     -4.84267761
 Ti     17.67063633      6.63780116     -4.84905131
 Ti     11.17112152     12.54017942     -4.85760201
 Ti     17.76086193     12.53997692     -4.85494921
 Ti     11.16798488      9.57195295     -4.84076381
 Ti     17.76496603      9.55830793     -4.84740701
 Ti     11.15998408     15.52326962     -4.85603701
 Ti     17.68720513     15.52292102     -4.85539531
  O      4.50839834      0.71926992     -0.34010255
  O      4.51180337      3.65916205     -0.33721896
  O      4.51887021      6.64521145     -0.32875073
  O      4.51161413     12.54452216     -0.34718719
  O      4.51399177      9.60207771     -0.33527885
  O      4.50858683     15.51999133     -0.34330149
  O     11.09212688      0.71909360     -0.33393099
  O     17.67306178      0.71960864     -0.32624871
  O     11.08613898      3.66660444     -0.33859022
  O     17.67187301      3.67579707     -0.33129425
  O     11.08687446      6.64625509     -0.33282806
  O     17.67882754      6.64937818     -0.33545907
  O     11.09791677     12.54805853     -0.32934449
  O     17.68737917     12.54486418     -0.32962540
  O     11.08851999      9.59698890     -0.33086711
  O     17.68149603      9.59505575     -0.33078478
  O     11.10075215     15.51551655     -0.32912311
  O     17.68061647     15.52098124     -0.32755178
  O      2.52847458      2.19707998     -1.67679718
  O      2.52832193      5.15681189     -1.59992168
  O      2.53206906      8.11526864     -1.59912302
  O      2.53200488     14.03278665     -1.67630701
  O      2.53590867     11.07698556     -1.67230927
  O      2.52677125     17.00029427     -1.67740184
  O      9.11406052      2.19884860     -1.67864147
  O     15.66027481      2.20128230     -1.60682690
  O      9.11371744      5.15178411     -1.67959564
  O     15.68312353      5.15606203     -1.67034020
  O      9.11588751      8.11405535     -1.67463941
  O     15.69644398      8.11745240     -1.67484631
  O      9.12073918     14.04147867     -1.59814875
  O     15.69885201     14.03604208     -1.59316166
  O      9.11817370     11.07935990     -1.59758737
  O     15.69852913     11.07306338     -1.59923402
  O      9.11734449     16.99008436     -1.59691019
  O     15.68684695     16.99659036     -1.59685671
  O     -0.10072615      2.20175982     -1.60244580
  O     -0.09579378      5.15240906     -1.67670630
  O     -0.07514011      8.11249668     -1.67802483
  O     -0.07997509     14.03686181     -1.67843142
  O     -0.06251463     11.07923762     -1.67655237
  O     -0.08890155     16.99510939     -1.61109102
  O      6.53071700      2.19032508     -1.67172479
  O     13.06451304      2.19708269     -1.67898259
  O      6.52627547      5.15988572     -1.66892877
  O     13.06317794      5.16288646     -1.67592260
  O      6.53688575      8.12127107     -1.67584601
  O     13.06545909      8.11712948     -1.67680757
  O      6.53388118     14.03021317     -1.67708590
  O     13.11354058     14.03292781     -1.68743175
  O      6.54354296     11.07890128     -1.68159552
  O     13.07787612     11.07697217     -1.68239403
  O      6.51999909     16.98999569     -1.67025951
  O     13.08496487     16.98988190     -1.68200143
  O      4.53786602      0.70758103     -2.98954359
  O      4.54403684      3.67864201     -2.95059834
  O      4.54353763      6.63931244     -2.94590286
  O      4.54931403     12.55001857     -3.00414110
  O      4.54615327      9.59563606     -2.95107735
  O      4.54267882     15.51674688     -2.94921836
  O     11.04506561      0.70543087     -2.94757649
  O     17.62852426      0.71755324     -2.94208397
  O     11.12606359      3.67523189     -2.95208329
  O     17.64228330      3.67077609     -2.95163973
  O     11.04922967      6.64422526     -2.95127756
  O     17.63499851      6.63701585     -2.94918907
  O     11.04627626     12.55632668     -2.94631192
  O     17.63298724     12.55424168     -2.94694517
  O     11.04425365      9.59476593     -2.94705195
  O     17.71067856      9.59785626     -2.94637882
  O     11.11407381     15.51567955     -2.94738607
  O     17.62761844     15.51867240     -2.94770046
  O      1.16730567      0.72032719     -3.64614811
  O      1.24142946      3.67323106     -3.64559693
  O      1.25422791      6.63149921     -3.64836590
  O      1.24573761     12.55074781     -3.65661944
  O      1.24698371      9.58996293     -3.65482874
  O      1.24079256     15.51415465     -3.64850943
  O      7.84755798      0.65822843     -3.65317225
  O     14.42834009      0.70876926     -3.65114366
  O      7.75772666      3.67282632     -3.65992126
  O     14.41503644      3.67239459     -3.65396500
  O      7.84214381      6.64068554     -3.67133771
  O     14.41796467      6.63181367     -3.66446899
  O      7.92675950     12.55284276     -3.66165811
  O     14.51267915     12.55925359     -3.66583031
  O      7.92393007      9.59868971     -3.66747811
  O     14.42720808      9.60368487     -3.66342736
  O      7.85000805     15.50868029     -3.66170648
  O     14.51404225     15.51566398     -3.66595195
  O      5.75671982      2.16324301     -5.01435958
  O      5.75975303      5.15448081     -5.01530183
  O      5.76556015      8.14428322     -5.01539114
  O      5.75653567     14.03557632     -5.01636649
  O      5.78411909     11.08130282     -5.09072135
  O      5.76834411     16.97608362     -5.06744863
  O     12.34626893      2.16631666     -5.01136403
  O     18.92693223      2.16872457     -5.01182269
  O     12.35319463      5.15333855     -5.01211275
  O     18.92479343      5.15702773     -5.01288125
  O     12.38480073      8.10072512     -4.98445473
  O     18.93235633      8.05623231     -5.01259674
  O     12.35286853     14.03080392     -5.00936198
  O     18.92498483     14.03379252     -5.01470270
  O     12.37642473     11.06886562     -4.98555887
  O     18.93427013     11.04978872     -5.01564865
  O     12.37237753     16.98851532     -4.98794386
  O     18.92340113     17.02074082     -5.01352979
  O      3.22044698      2.16860736     -5.01483320
  O      3.22535877      5.15561492     -5.01428870
  O      3.22541749      8.14656077     -5.01556500
  O      3.21913862     14.03265332     -5.01720782
  O      3.22122825     11.05180552     -5.01514675
  O      3.19055941     16.98232112     -4.99293827
  O      9.80662525      2.17046481     -5.01076665
  O     16.39100653      2.17423529     -5.01482192
  O      9.80898175      5.15497252     -5.01507870
  O     16.39253663      5.14959923     -5.01645290
  O      9.91779221      8.13950322     -5.26757440
  O     16.39480123      8.14363750     -5.01513968
  O      9.93210408     14.03336686     -5.19536888
  O     16.50904620     14.03254601     -5.20296988
  O      9.94031990     11.07440600     -5.19705723
  O     16.52457610     11.06721736     -5.19701748
  O      9.89109481     16.97561302     -5.19278317
  O     16.48915131     16.99946280     -5.19553072
  O      1.25088733      0.71851802     -6.18411049
  O      1.24511498      3.66782190     -6.18930110
  O      1.25127594      6.62532430     -6.18717196
  O      1.25087407     12.55127117     -6.19242414
  O      1.24291261      9.58949157     -6.18831295
  O      1.24441005     15.50623474     -6.18118684
  O      7.75313584      0.71934483     -6.18526678
  O     14.41859379      0.72195880     -6.18694327
  O      7.83046563      3.64396538     -6.19141794
  O     14.34234357      3.65447390     -6.19246203
  O      7.75205245      6.62230557     -6.19408800
  O     14.42223371      6.61949175     -6.19834840
  O      7.75339785     12.55076102     -6.19457837
  O     14.33862573     12.56087697     -6.19719842
  O      7.82727799      9.60001139     -6.19093921
  O     14.41597948      9.59571130     -6.19876855
  O      7.75657171     15.49529594     -6.18846092
  O     14.33832771     15.52441085     -6.20041601
 Au     11.01747841      5.74371567      7.48541531
 Au     12.48017946     10.71116105      8.52281634
 Au     14.69045342      9.43057946      7.61173536
 Au      7.39818514      9.49675328      7.62457324
 Au     12.46343411      7.92816602      8.11587994
 Au     11.04772142      9.25661184     10.35164339
 Au      9.62198398      7.95973641      8.13057221
 Au      9.63704123     10.74078470      8.53127026
