#B3LYP/6-31+G(d) OPT FREQ

439, Energy = -13269.72249473 au

0 1
 Ti      1.57254300      0.72427440      4.67752628
 Ti      1.56733874      3.68421670      4.67731184
 Ti      1.58124599      6.63136081      4.67340997
 Ti      1.60180561     12.54337208      4.67801564
 Ti      1.56130367      9.59120393      4.67064601
 Ti      1.60216413     15.49655409      4.67714399
 Ti      7.86884705      0.73236780      4.73582216
 Ti     14.19126493      0.72435766      4.74391180
 Ti      7.87910669      3.69619504      4.77034916
 Ti     14.19611636      3.67461174      4.74620565
 Ti      7.89896378      6.64735410      4.75523744
 Ti     14.18536737      6.63476496      4.74504383
 Ti      7.88018373     12.55010082      4.73379030
 Ti     14.22817664     12.54193488      4.73542209
 Ti      7.88125747      9.59753107      4.77685709
 Ti     14.17880519      9.59812768      4.74336817
 Ti      7.89068685     15.50061081      4.73407164
 Ti     14.22791750     15.49784383      4.73573472
 Ti      4.71699139      2.17805271      5.29676655
 Ti      4.71730685      5.15167208      5.22120382
 Ti      4.70960946      8.08145864      5.21560678
 Ti      4.72197082     14.02043617      5.30870346
 Ti      4.71722686     11.07301633      5.29200398
 Ti      4.72283321     16.95704432      5.28970860
 Ti     11.03030900      2.12331117      5.27832294
 Ti     17.32401325      2.19514505      5.16427089
 Ti     11.04488981      4.95858528      4.83579095
 Ti     17.29656593      5.14784361      5.14278311
 Ti     11.03192181      8.34618205      4.86826855
 Ti     17.31037051      8.11114988      5.16755146
 Ti     11.04836274     14.06415184      5.28658659
 Ti     17.33618592     14.02506876      5.15024665
 Ti     11.03593639     11.17700049      5.25237010
 Ti     17.32659546     11.06791811      5.13750957
 Ti     11.03960185     16.95498544      5.28625370
 Ti     17.32774212     16.96964738      5.13288561
  O      4.72955434      0.72137399      3.75666923
  O      4.72374749      3.69074068      3.75180060
  O      4.71349767      6.62014910      3.69792971
  O      4.66038378     12.52776425      3.76043629
  O      4.72169577      9.60247179      3.74728790
  O      4.65963666     15.50391967      3.75645960
  O     11.03068563      0.71860115      3.76430209
  O     17.25527227      0.72049070      3.65743851
  O     11.03149668      3.61628398      3.67022985
  O     17.18780693      3.69784462      3.65646783
  O     11.02470068      6.62348628      3.74804353
  O     17.18907491      6.62505974      3.65558255
  O     11.02415768     12.53658611      3.75407551
  O     17.18459010     12.52862025      3.63484346
  O     11.03218180      9.67860084      3.65159106
  O     17.25380112      9.59536867      3.65012765
  O     11.02235880     15.51227357      3.75795810
  O     17.18585805     15.50670610      3.64975017
  O      4.73034426      0.72311628      6.38147076
  O      4.80208880      3.69716521      6.39202419
  O      4.73270470      6.62333632      6.31214568
  O      4.80657779      9.54258610      6.38844218
  O      4.72932505     12.52534621      6.38511901
  O      4.72790190     15.50058190      6.38550271
  O     11.03137002      0.70901085      6.39628469
  O     17.41121652      0.71897939      6.23697382
  O     11.02883338      3.69881304      6.25067614
  O     17.41104109      3.69059267      6.23586422
  O     17.34421378      6.62778636      6.23520376
  O     11.03293752     12.59723877      6.39394107
  O     17.41127446     12.53728885      6.22842323
  O     11.03190689      9.60525059      6.17267211
  O     17.40957574      9.59565745      6.23483680
  O     11.03150764     15.50846668      6.39370533
  O     17.41212020     15.49812972      6.23229801
  O      2.76848055      2.20880280      5.12551905
  O      2.76736505      5.13425350      5.12791431
  O      2.76751049      8.11513230      5.12216327
  O      2.75712457     14.01791944      5.19900646
  O      2.76998339     11.03079204      5.13581756
  O      2.76619669     16.99995969      5.12855252
  O      9.06817801      2.20000637      5.11986655
  O     15.35513842      2.20456188      5.19651591
  O      9.12627159      5.18863527      5.03336666
  O     15.29749335      5.13800648      5.27271140
  O      9.11804299      8.11475952      5.04845296
  O     15.31435283      8.11961280      5.20642244
  O      9.07184671     14.02363110      5.12366110
  O     15.36071918     14.01883742      5.20539797
  O      9.06762259     11.09886835      5.12477339
  O     15.35763573     11.03503499      5.19866436
  O      9.06958335     16.99337821      5.12643033
  O     15.35866823     16.99970046      5.20153838
  O      0.38863360      2.20688089      4.96405604
  O      0.38229976      5.18236071      4.96493784
  O      0.38506013      8.10471213      4.96486348
  O      0.38802400     14.01720231      4.88941806
  O      0.39410188     11.09456273      4.96230863
  O      0.39413073     16.94332221      4.96314653
  O      6.68367835      2.20454901      5.11703168
  O     12.98505779      2.20400785      5.11824518
  O      6.68875802      5.19157284      5.03292210
  O     12.92953621      5.19189025      5.05009065
  O      6.67714285      8.10815646      4.96027297
  O     12.93155130      8.09752894      5.04852052
  O      6.67842842     14.02409443      5.12040242
  O     12.98863505     14.02075111      5.04779602
  O      6.68000501     11.09306685      5.11638101
  O     12.99238604     11.10006591      5.11839728
  O      6.68375739     16.95022691      5.12365286
  O     12.98968094     16.94777114      5.11677530
 Ti      1.57580407      2.20214356      1.49503831
 Ti      1.57477146      5.15734182      1.50584133
 Ti      1.58891498      8.11506689      1.47657178
 Ti      1.55615227     14.02171496      1.49944179
 Ti      1.57389563     11.07226851      1.50025777
 Ti      1.57307144     16.96966759      1.50287692
 Ti      7.87704437      2.22047723      1.51781790
 Ti     14.25097585      2.20261900      1.50260469
 Ti      7.88062727      5.16966601      1.53416230
 Ti     14.24344398      5.16538858      1.51430259
 Ti      7.88551624      8.10413906      1.52765270
 Ti     14.25829287      8.11402006      1.50267885
 Ti      7.87221846     14.01618388      1.50666163
 Ti     14.19930128     14.01999303      1.49494443
 Ti      7.87567916     11.04869440      1.52966756
 Ti     14.25159667     11.06902820      1.50775743
 Ti      7.88112273     16.97977114      1.51316089
 Ti     14.22437254     16.97388862      1.51436040
 Ti      4.72612238      0.72085720      1.92336198
 Ti      4.71635050      3.67181290      1.91712299
 Ti      4.72230646      6.62537377      1.85950417
 Ti      4.69399613     12.54242681      1.92081798
 Ti      4.72847580      9.59424334      1.91874620
 Ti      4.69969227     15.49618285      1.91251876
 Ti     11.04750185      0.72235806      1.92419144
 Ti     17.39507878      0.71947035      1.76554749
 Ti     11.07047414      3.65282571      1.60972260
 Ti     17.35611839      3.68379418      1.76764101
 Ti     11.04976826      6.62905231      1.83553294
 Ti     17.38555739      6.63595732      1.77986506
 Ti     11.02958519     12.54971877      1.91714151
 Ti     17.34437129     12.54822041      1.76710158
 Ti     11.09209261      9.61267016      1.65289313
 Ti     17.40194081      9.59446730      1.77208774
 Ti     11.04644418     15.50641816      1.91009489
 Ti     17.33596696     15.49754628      1.75849540
  O      1.65069907      0.71961287      2.89247373
  O      1.65309187      3.68948373      2.89320547
  O      1.65642412      6.62387995      2.88899187
  O      1.66012073     12.53406047      2.89007126
  O      1.65246748      9.59805803      2.88978549
  O      1.65947273     15.50445409      2.88896068
  O      7.87603942      0.71916541      2.95489163
  O     14.25816574      0.72629194      2.95829045
  O      7.87871713      3.68957245      2.96314299
  O     14.26073686      3.69256456      2.95999124
  O      7.88514572      6.62409840      2.94182719
  O     14.26205195      6.62277447      2.95958838
  O      7.87804663     12.53366556      2.95123820
  O     14.26135837     12.52637559      2.95179193
  O      7.87958412      9.60642149      2.96339896
  O     14.25724343      9.60142571      2.95801177
  O      7.87750083     15.50631040      2.95447686
  O     14.26212550     15.50886908      2.95383654
  O      5.96370531      2.20281530      1.68198801
  O      5.96028920      5.13720069      1.67384862
  O      5.96739634      8.11064537      1.67838153
  O      5.94003287     14.01844525      1.68734886
  O      5.94792984     11.08741467      1.68234358
  O      5.95093150     16.95477311      1.68444410
  O     12.29255736      2.20331125      1.69362012
  O     18.62579546      2.21241180      1.83518407
  O     12.28933246      5.14009708      1.75219612
  O     18.61899041      5.14260184      1.83436992
  O     12.29324413      8.10866166      1.75674739
  O     18.64666306      8.10814258      1.83612396
  O     12.28619198     14.02012966      1.76143424
  O     18.60995953     14.02071846      1.83449396
  O     12.28953512     11.08990087      1.69059344
  O     18.62303158     11.08985963      1.83240174
  O     12.28870815     16.99076763      1.76138090
  O     18.61889700     16.94874523      1.83439140
  O      3.46887501      2.20122078      1.68662581
  O      3.47048582      5.13509823      1.67943019
  O      3.47154471      8.11241283      1.68291751
  O      3.46075884     14.01886363      1.68102634
  O      3.46826330     11.04446210      1.68243791
  O      3.46759733     16.99663834      1.68437130
  O      9.78604659      2.20671099      1.68304778
  O     16.13763123      2.20135956      1.53091284
  O      9.79982898      5.13868391      1.68001547
  O     16.13857519      5.18001702      1.52592168
  O      9.79939860      8.11229745      1.68313544
  O     16.14420129      8.11407014      1.53024383
  O      9.78178926     14.02181801      1.68862898
  O     16.10950748     14.01964020      1.52893363
  O      9.79003461     11.04821466      1.67984964
  O     16.13989325     11.03863060      1.52534442
  O      9.78742821     16.99137858      1.69026442
  O     16.13252666     16.99709706      1.53223987
  O      1.42399017      0.72043296      0.31650963
  O      1.42537574      3.68366515      0.31594346
  O      1.42383313      6.62336935      0.31910565
  O      1.43042117     12.54120134      0.31063477
  O      1.42433462      9.60278107      0.31430357
  O      1.42935719     15.50289552      0.31292047
  O      7.86954651      0.73101641      0.38419712
  O     14.17756457      0.72408194      0.38996503
  O      7.87626296      3.69007384      0.37521684
  O     14.18025814      3.69354698      0.38776548
  O      7.87705771      6.62870602      0.37518292
  O     14.17808995      6.63058678      0.38641256
  O      7.87006922     12.53385061      0.38544950
  O     14.17948136     12.53560099      0.38528185
  O      7.87300994      9.59060897      0.38156664
  O     14.17651042      9.58919266      0.38626561
  O      7.86803082     15.50359592      0.38620139
  O     14.17535062     15.50791166      0.38793464
 Ti      1.21202878      0.71942337     -1.75752175
 Ti      1.21975963      3.67805472     -1.74110369
 Ti      1.22111716      6.63676035     -1.75533981
 Ti      1.22849042     12.55412208     -1.76041713
 Ti      1.22816291      9.59460746     -1.76515972
 Ti      1.22709747     15.51555674     -1.75892704
 Ti      7.81592619      0.70815691     -1.75287415
 Ti     14.38158119      0.71494161     -1.74474248
 Ti      7.80441092      3.67854378     -1.75257935
 Ti     14.37667801      3.68492053     -1.74500898
 Ti      7.81736303      6.63892084     -1.77625323
 Ti     14.39331679      6.64344134     -1.77549943
 Ti      7.83696388     12.55658465     -1.73913837
 Ti     14.41282109     12.55049553     -1.76073407
 Ti      7.83299588      9.59648136     -1.75768511
 Ti     14.39561168      9.59560913     -1.76648022
 Ti      7.81589198     15.51260085     -1.75790650
 Ti     14.40934091     15.51010728     -1.75630241
 Ti      4.52199207      2.19050397     -1.59161227
 Ti      4.52373824      5.15426536     -1.55230957
 Ti      4.52843688      8.11879900     -1.54955447
 Ti      4.52242957     14.02788300     -1.58772473
 Ti      4.53079138     11.07968169     -1.59126437
 Ti      4.51358792     17.00203362     -1.57907569
 Ti     11.08823270      2.18916184     -1.58733264
 Ti     17.65604673      2.19783817     -1.55248141
 Ti     11.08432363      5.15913192     -1.58883355
 Ti     17.66893902      5.16127300     -1.56595475
 Ti     11.08575948      8.12733818     -1.56890861
 Ti     17.68745030      8.12028738     -1.56060303
 Ti     11.11629116     14.03082356     -1.56258642
 Ti     17.68818458     14.03100085     -1.55812337
 Ti     11.09881007     11.08605676     -1.56207204
 Ti     17.69462097     11.07650451     -1.55489374
 Ti     11.10410228     16.98111534     -1.56242844
 Ti     17.67622831     16.99175535     -1.55176830
 Ti      1.30369970      2.19477698     -5.04772806
 Ti      1.31326858      5.12839073     -5.06048784
 Ti      1.30359635      8.09782824     -5.06656126
 Ti      1.29820627     14.00489532     -5.04681690
 Ti      1.30725828     11.07251972     -5.06745828
 Ti      1.18973891     16.97985252     -5.06112726
 Ti      7.88664190      2.17917051     -5.02767245
 Ti     14.46226053      2.18925818     -5.03217217
 Ti      7.90023798      5.11224747     -5.08518336
 Ti     14.48015323      5.11228181     -5.08395591
 Ti      7.89220098      8.10050586     -5.10119657
 Ti     14.47471673      8.10258285     -5.09878726
 Ti      7.90136460     14.00015542     -5.07435167
 Ti     14.48080143     14.05402072     -5.10816406
 Ti      7.90055760     11.08069982     -5.06893140
 Ti     14.49247153     11.08398312     -5.09432306
 Ti      7.79144382     16.97928002     -5.08718989
 Ti     14.46501303     16.99934982     -5.08067258
 Ti      4.50271475      0.67853286     -4.94553993
 Ti      4.59738169      3.66118026     -4.86025121
 Ti      4.58795066      6.64821928     -4.84268471
 Ti      4.60536881     12.54970432     -4.94445295
 Ti      4.55390161      9.59821891     -4.86271729
 Ti      4.49358231     15.51842562     -4.83720531
 Ti     11.07892972      0.67118858     -4.85049841
 Ti     17.67039963      0.74986841     -4.84503371
 Ti     11.18252030      3.65473495     -4.85592691
 Ti     17.76770073      3.67433079     -4.85125511
 Ti     11.15972404      6.63934225     -4.84267761
 Ti     17.67063633      6.63780116     -4.84905131
 Ti     11.17112152     12.54017942     -4.85760201
 Ti     17.76086193     12.53997692     -4.85494921
 Ti     11.16798488      9.57195295     -4.84076381
 Ti     17.76496603      9.55830793     -4.84740701
 Ti     11.15998408     15.52326962     -4.85603701
 Ti     17.68720513     15.52292102     -4.85539531
  O      4.50839834      0.71926992     -0.34010255
  O      4.51180337      3.65916205     -0.33721896
  O      4.51887021      6.64521145     -0.32875073
  O      4.51161413     12.54452216     -0.34718719
  O      4.51399177      9.60207771     -0.33527885
  O      4.50858683     15.51999133     -0.34330149
  O     11.09212688      0.71909360     -0.33393099
  O     17.67306178      0.71960864     -0.32624871
  O     11.08613898      3.66660444     -0.33859022
  O     17.67187301      3.67579707     -0.33129425
  O     11.08687446      6.64625509     -0.33282806
  O     17.67882754      6.64937818     -0.33545907
  O     11.09791677     12.54805853     -0.32934449
  O     17.68737917     12.54486418     -0.32962540
  O     11.08851999      9.59698890     -0.33086711
  O     17.68149603      9.59505575     -0.33078478
  O     11.10075215     15.51551655     -0.32912311
  O     17.68061647     15.52098124     -0.32755178
  O      2.52847458      2.19707998     -1.67679718
  O      2.52832193      5.15681189     -1.59992168
  O      2.53206906      8.11526864     -1.59912302
  O      2.53200488     14.03278665     -1.67630701
  O      2.53590867     11.07698556     -1.67230927
  O      2.52677125     17.00029427     -1.67740184
  O      9.11406052      2.19884860     -1.67864147
  O     15.66027481      2.20128230     -1.60682690
  O      9.11371744      5.15178411     -1.67959564
  O     15.68312353      5.15606203     -1.67034020
  O      9.11588751      8.11405535     -1.67463941
  O     15.69644398      8.11745240     -1.67484631
  O      9.12073918     14.04147867     -1.59814875
  O     15.69885201     14.03604208     -1.59316166
  O      9.11817370     11.07935990     -1.59758737
  O     15.69852913     11.07306338     -1.59923402
  O      9.11734449     16.99008436     -1.59691019
  O     15.68684695     16.99659036     -1.59685671
  O     -0.10072615      2.20175982     -1.60244580
  O     -0.09579378      5.15240906     -1.67670630
  O     -0.07514011      8.11249668     -1.67802483
  O     -0.07997509     14.03686181     -1.67843142
  O     -0.06251463     11.07923762     -1.67655237
  O     -0.08890155     16.99510939     -1.61109102
  O      6.53071700      2.19032508     -1.67172479
  O     13.06451304      2.19708269     -1.67898259
  O      6.52627547      5.15988572     -1.66892877
  O     13.06317794      5.16288646     -1.67592260
  O      6.53688575      8.12127107     -1.67584601
  O     13.06545909      8.11712948     -1.67680757
  O      6.53388118     14.03021317     -1.67708590
  O     13.11354058     14.03292781     -1.68743175
  O      6.54354296     11.07890128     -1.68159552
  O     13.07787612     11.07697217     -1.68239403
  O      6.51999909     16.98999569     -1.67025951
  O     13.08496487     16.98988190     -1.68200143
  O      4.53786602      0.70758103     -2.98954359
  O      4.54403684      3.67864201     -2.95059834
  O      4.54353763      6.63931244     -2.94590286
  O      4.54931403     12.55001857     -3.00414110
  O      4.54615327      9.59563606     -2.95107735
  O      4.54267882     15.51674688     -2.94921836
  O     11.04506561      0.70543087     -2.94757649
  O     17.62852426      0.71755324     -2.94208397
  O     11.12606359      3.67523189     -2.95208329
  O     17.64228330      3.67077609     -2.95163973
  O     11.04922967      6.64422526     -2.95127756
  O     17.63499851      6.63701585     -2.94918907
  O     11.04627626     12.55632668     -2.94631192
  O     17.63298724     12.55424168     -2.94694517
  O     11.04425365      9.59476593     -2.94705195
  O     17.71067856      9.59785626     -2.94637882
  O     11.11407381     15.51567955     -2.94738607
  O     17.62761844     15.51867240     -2.94770046
  O      1.16730567      0.72032719     -3.64614811
  O      1.24142946      3.67323106     -3.64559693
  O      1.25422791      6.63149921     -3.64836590
  O      1.24573761     12.55074781     -3.65661944
  O      1.24698371      9.58996293     -3.65482874
  O      1.24079256     15.51415465     -3.64850943
  O      7.84755798      0.65822843     -3.65317225
  O     14.42834009      0.70876926     -3.65114366
  O      7.75772666      3.67282632     -3.65992126
  O     14.41503644      3.67239459     -3.65396500
  O      7.84214381      6.64068554     -3.67133771
  O     14.41796467      6.63181367     -3.66446899
  O      7.92675950     12.55284276     -3.66165811
  O     14.51267915     12.55925359     -3.66583031
  O      7.92393007      9.59868971     -3.66747811
  O     14.42720808      9.60368487     -3.66342736
  O      7.85000805     15.50868029     -3.66170648
  O     14.51404225     15.51566398     -3.66595195
  O      5.75671982      2.16324301     -5.01435958
  O      5.75975303      5.15448081     -5.01530183
  O      5.76556015      8.14428322     -5.01539114
  O      5.75653567     14.03557632     -5.01636649
  O      5.78411909     11.08130282     -5.09072135
  O      5.76834411     16.97608362     -5.06744863
  O     12.34626893      2.16631666     -5.01136403
  O     18.92693223      2.16872457     -5.01182269
  O     12.35319463      5.15333855     -5.01211275
  O     18.92479343      5.15702773     -5.01288125
  O     12.38480073      8.10072512     -4.98445473
  O     18.93235633      8.05623231     -5.01259674
  O     12.35286853     14.03080392     -5.00936198
  O     18.92498483     14.03379252     -5.01470270
  O     12.37642473     11.06886562     -4.98555887
  O     18.93427013     11.04978872     -5.01564865
  O     12.37237753     16.98851532     -4.98794386
  O     18.92340113     17.02074082     -5.01352979
  O      3.22044698      2.16860736     -5.01483320
  O      3.22535877      5.15561492     -5.01428870
  O      3.22541749      8.14656077     -5.01556500
  O      3.21913862     14.03265332     -5.01720782
  O      3.22122825     11.05180552     -5.01514675
  O      3.19055941     16.98232112     -4.99293827
  O      9.80662525      2.17046481     -5.01076665
  O     16.39100653      2.17423529     -5.01482192
  O      9.80898175      5.15497252     -5.01507870
  O     16.39253663      5.14959923     -5.01645290
  O      9.91779221      8.13950322     -5.26757440
  O     16.39480123      8.14363750     -5.01513968
  O      9.93210408     14.03336686     -5.19536888
  O     16.50904620     14.03254601     -5.20296988
  O      9.94031990     11.07440600     -5.19705723
  O     16.52457610     11.06721736     -5.19701748
  O      9.89109481     16.97561302     -5.19278317
  O     16.48915131     16.99946280     -5.19553072
  O      1.25088733      0.71851802     -6.18411049
  O      1.24511498      3.66782190     -6.18930110
  O      1.25127594      6.62532430     -6.18717196
  O      1.25087407     12.55127117     -6.19242414
  O      1.24291261      9.58949157     -6.18831295
  O      1.24441005     15.50623474     -6.18118684
  O      7.75313584      0.71934483     -6.18526678
  O     14.41859379      0.72195880     -6.18694327
  O      7.83046563      3.64396538     -6.19141794
  O     14.34234357      3.65447390     -6.19246203
  O      7.75205245      6.62230557     -6.19408800
  O     14.42223371      6.61949175     -6.19834840
  O      7.75339785     12.55076102     -6.19457837
  O     14.33862573     12.56087697     -6.19719842
  O      7.82727799      9.60001139     -6.19093921
  O     14.41597948      9.59571130     -6.19876855
  O      7.75657171     15.49529594     -6.18846092
  O     14.33832771     15.52441085     -6.20041601
 Au      7.90873966      6.63688813      7.92914151
 Au      9.39306180      4.33792299      7.81867636
 Au     12.04729962      8.76237587      8.66450239
 Au      9.29586135      8.96079916      8.34049583
 Au      6.74219162      9.12072913      7.68984377
 Au      6.75679019      4.10077006      7.78112985
 Au     10.94329833      6.62111618      7.43636815
 Au     10.81709873     11.11971043      9.03281587

