439
Energy = -13269.71681455 au
 Ti      1.57025885      0.72695126      4.67646171
 Ti      1.57862089      3.69181545      4.68269900
 Ti      1.58162450      6.63771106      4.66925467
 Ti      1.59413888     12.54329469      4.67806792
 Ti      1.57630938      9.59230408      4.67005501
 Ti      1.60813772     15.49788462      4.67662265
 Ti      7.86607472      0.72446727      4.73389504
 Ti     14.19131901      0.72430896      4.74254458
 Ti      7.88733256      3.67938834      4.73797879
 Ti     14.20322848      3.67179641      4.74158607
 Ti      7.90577926      6.63949979      4.80415597
 Ti     14.18943301      6.63818882      4.75004768
 Ti      7.86708598     12.54349730      4.73369710
 Ti     14.23352012     12.54491242      4.73466492
 Ti      7.89011244      9.59067236      4.74557793
 Ti     14.17177956      9.60880492      4.78363560
 Ti      7.89317377     15.49662945      4.73544970
 Ti     14.23046317     15.49940047      4.73395615
 Ti      4.71599706      2.18607909      5.29158964
 Ti      4.72345829      5.13326189      5.24546434
 Ti      4.72182156      8.09717600      5.23451034
 Ti      4.72133237     14.01288190      5.31968408
 Ti      4.72110037     11.05605068      5.28413610
 Ti      4.72149892     16.96071397      5.29562777
 Ti     11.03266790      2.14096885      5.29504595
 Ti     17.32750399      2.19322851      5.16407941
 Ti     11.03786311      4.92062894      4.85345087
 Ti     17.30358368      5.14617640      5.14366172
 Ti     11.03751332      8.36309084      4.80105094
 Ti     17.32998583      8.10753601      5.15592744
 Ti     11.04956987     14.07852167      5.28180555
 Ti     17.33871280     14.02271232      5.15576423
 Ti     11.02939053     11.18273841      5.25807329
 Ti     17.32998976     11.06700797      5.14358853
 Ti     11.04142456     16.96967730      5.28568839
 Ti     17.32977049     16.96659881      5.13243829
  O      4.72976252      0.71852771      3.75293447
  O      4.72518861      3.69193046      3.74454941
  O      4.72448885      6.61957408      3.69752409
  O      4.72416822     12.53044304      3.75899502
  O      4.72430632      9.60144693      3.70307989
  O      4.66068326     15.50371149      3.75383558
  O     11.03090404      0.71791356      3.76655607
  O     17.25564223      0.72097940      3.65746161
  O     11.02544133      3.60802368      3.67205729
  O     17.18564896      3.69859257      3.65853864
  O     11.01951026      6.62297776      3.75808938
  O     17.19352873      6.62459105      3.65331825
  O     11.02461384     12.53277479      3.75608802
  O     17.18495107     12.52850124      3.65297852
  O     11.02760145      9.68631554      3.61891235
  O     17.25507002      9.59661536      3.65212720
  O     11.02240147     15.51020954      3.75864881
  O     17.18524272     15.50689331      3.65415303
  O      4.73014462      0.72069681      6.37869969
  O      4.72784554      3.68917487      6.34083057
  O      4.80358354      6.62463480      6.32298120
  O      4.73307899      9.54810373      6.32572057
  O      4.73044967     12.52241811      6.38229752
  O      4.72881256     15.50023243      6.38784897
  O     11.03230911      0.70842480      6.39932125
  O     17.41144522      0.71904166      6.23693388
  O     11.03132094      3.70823037      6.24395446
  O     17.41015896      3.69086213      6.23725349
  O     17.34269927      6.62836204      6.23680725
  O     11.03398114     12.59778689      6.39652027
  O     17.41069732     12.53516468      6.23507850
  O     11.03177468      9.58867526      6.15713661
  O     17.40369240      9.59029215      6.23961789
  O     11.03123094     15.50954100      6.39270252
  O     17.41161159     15.49900597      6.23491398
  O      2.76339979      2.20673167      5.12212510
  O      2.76602144      5.18097958      5.12714202
  O      2.76636356      8.11176579      5.11980172
  O      2.75817947     14.01565095      5.19685045
  O      2.76813013     11.03790254      5.12514509
  O      2.76522045     17.00044099      5.12780071
  O      9.06906336      2.19737101      5.12434400
  O     15.35608158      2.20379274      5.19701921
  O      9.12817460      5.18106540      5.11555399
  O     15.29629526      5.13872828      5.27709624
  O      9.13142300      8.10784100      5.10368810
  O     15.34354534      8.11195647      5.19472545
  O      9.07153691     14.01700669      5.12244923
  O     15.36079233     14.01961184      5.20748873
  O      9.06934926     11.09877472      5.12648522
  O     15.35898865     11.03993766      5.19815565
  O      9.07057809     16.99182202      5.12639528
  O     15.35877692     16.99988620      5.20177230
  O      0.38889932      2.21179282      4.96329843
  O      0.38108267      5.17874504      4.96593100
  O      0.38563174      8.11045993      4.96577988
  O      0.38701562     14.01956356      4.89160750
  O      0.39284593     11.09059279      4.96408759
  O      0.39408573     16.94229687      4.96303134
  O      6.68881125      2.20890068      5.12148771
  O     12.98717385      2.20372854      5.11829975
  O      6.70261946      5.12477079      5.11696905
  O     12.92722032      5.18743184      5.04187413
  O      6.69566718      8.12502081      5.04074509
  O     12.92483492      8.09779991      5.03237134
  O      6.68341952     14.02315301      5.12294846
  O     12.98853742     14.01994799      5.05013115
  O      6.68998337     11.03696257      5.12460986
  O     12.98644095     11.10540427      5.10699666
  O      6.68582248     16.94698327      5.12266967
  O     12.99005956     16.94716198      5.11692064
 Ti      1.57706126      2.20238593      1.49641069
 Ti      1.57797491      5.15852669      1.50598649
 Ti      1.59122566      8.11436089      1.47656585
 Ti      1.56434739     14.02097600      1.49941406
 Ti      1.57934487     11.07365378      1.50029322
 Ti      1.57480177     16.96957848      1.50259957
 Ti      7.87628046      2.21552515      1.50239849
 Ti     14.25256290      2.20398979      1.49974196
 Ti      7.87696341      5.17729326      1.53656633
 Ti     14.24526444      5.17207835      1.51069737
 Ti      7.88063122      8.09891176      1.53309291
 Ti     14.26054950      8.11846071      1.51642171
 Ti      7.87954764     14.02038848      1.50749041
 Ti     14.20215358     14.01440098      1.48734280
 Ti      7.87951075     11.05228118      1.51456471
 Ti     14.25455821     11.05849249      1.51915429
 Ti      7.88189870     16.97577949      1.51666751
 Ti     14.22817080     16.97277940      1.51491297
 Ti      4.72668023      0.72175825      1.92530319
 Ti      4.71628905      3.67389477      1.91322836
 Ti      4.72366391      6.62818447      1.88446587
 Ti      4.71937030     12.55054715      1.92698996
 Ti      4.72244949      9.60119097      1.89072076
 Ti      4.70266765     15.49863996      1.91820324
 Ti     11.04666537      0.72201117      1.93022088
 Ti     17.39642941      0.71966517      1.76566260
 Ti     11.07253645      3.65096471      1.60155108
 Ti     17.35717704      3.68421791      1.76991710
 Ti     11.04743872      6.62576353      1.84270134
 Ti     17.38895449      6.63570896      1.77427705
 Ti     11.03194947     12.54798684      1.92109542
 Ti     17.34899713     12.54906198      1.77424219
 Ti     11.09553791      9.61147557      1.61281760
 Ti     17.40384110      9.59541588      1.77402112
 Ti     11.05211449     15.50687161      1.90803531
 Ti     17.33944315     15.49635945      1.76029793
  O      1.65073090      0.71930355      2.89132345
  O      1.65412764      3.69048403      2.89771616
  O      1.65592481      6.62460782      2.88405077
  O      1.65823568     12.53708807      2.89110572
  O      1.65460446      9.60028738      2.88692999
  O      1.65964584     15.50489400      2.88849428
  O      7.87667470      0.71975819      2.95448972
  O     14.25843147      0.72632107      2.95792144
  O      7.88075047      3.69240229      2.95693170
  O     14.26123953      3.69268354      2.95849557
  O      7.88089303      6.62019022      2.96387121
  O     14.26200344      6.62166914      2.96024095
  O      7.87955826     12.53019247      2.95447434
  O     14.26163336     12.52765315      2.95235917
  O      7.88262307      9.60150373      2.95715289
  O     14.25688067      9.59981413      2.96994848
  O      7.87954516     15.50606259      2.95469642
  O     14.26259219     15.50851684      2.95368541
  O      5.96887155      2.20310605      1.68179374
  O      5.96497405      5.13574362      1.67388088
  O      5.97016177      8.11252751      1.67649396
  O      5.96246344     14.02463718      1.68519339
  O      5.96578731     11.08775396      1.67765937
  O      5.95800730     16.95656473      1.68412336
  O     12.29221714      2.20398238      1.69434447
  O     18.62571359      2.21275538      1.83556156
  O     12.28826554      5.13936511      1.75383418
  O     18.61918503      5.14078488      1.83420163
  O     12.29195763      8.10781303      1.75647695
  O     18.64686481      8.10907984      1.83594105
  O     12.28760490     14.01934947      1.76161555
  O     18.61122307     14.02039225      1.83541973
  O     12.28983150     11.08930514      1.68880195
  O     18.62417777     11.09212844      1.83347506
  O     12.28933747     16.99123468      1.76145255
  O     18.61967040     16.94874451      1.83457562
  O      3.46946596      2.20090748      1.68638160
  O      3.47114077      5.13569409      1.67969563
  O      3.47107416      8.11214303      1.68108211
  O      3.46638676     14.01866015      1.68230718
  O      3.47158586     11.08990653      1.68142123
  O      3.46941150     16.99579509      1.68411820
  O      9.78595668      2.20736957      1.68309076
  O     16.13778687      2.20132162      1.53077396
  O      9.80065197      5.13839927      1.68161270
  O     16.13895398      5.18045529      1.52565638
  O      9.79941054      8.11091729      1.68313266
  O     16.14508787      8.11432449      1.53035756
  O      9.78565570     14.02119947      1.68992143
  O     16.11472684     14.01865743      1.53042224
  O      9.79242682     11.04708338      1.67768394
  O     16.14162660     11.04038112      1.52679105
  O      9.78936722     16.99021297      1.69120544
  O     16.13360573     16.99650816      1.53248494
  O      1.42420852      0.72101475      0.31657023
  O      1.42570411      3.68303297      0.31657733
  O      1.42315227      6.62314259      0.31817066
  O      1.42969262     12.54363400      0.30999697
  O      1.42533629      9.60436330      0.31465924
  O      1.42976577     15.50271344      0.31298803
  O      7.87101648      0.72771386      0.38136043
  O     14.17771099      0.72356112      0.38993998
  O      7.87701786      3.69271661      0.37462081
  O     14.18011282      3.69428017      0.38701820
  O      7.87828803      6.62853459      0.37709223
  O     14.17801449      6.63450580      0.38760942
  O      7.87292314     12.53541552      0.38217692
  O     14.18030116     12.53116499      0.38766565
  O      7.87467732      9.58363162      0.38028620
  O     14.17652741      9.58810858      0.38869707
  O      7.87114975     15.50455492      0.38528736
  O     14.17590005     15.50775694      0.38719306
 Ti      1.21202878      0.71942337     -1.75752175
 Ti      1.21975963      3.67805472     -1.74110369
 Ti      1.22111716      6.63676035     -1.75533981
 Ti      1.22849042     12.55412208     -1.76041713
 Ti      1.22816291      9.59460746     -1.76515972
 Ti      1.22709747     15.51555674     -1.75892704
 Ti      7.81592619      0.70815691     -1.75287415
 Ti     14.38158119      0.71494161     -1.74474248
 Ti      7.80441092      3.67854378     -1.75257935
 Ti     14.37667801      3.68492053     -1.74500898
 Ti      7.81736303      6.63892084     -1.77625323
 Ti     14.39331679      6.64344134     -1.77549943
 Ti      7.83696388     12.55658465     -1.73913837
 Ti     14.41282109     12.55049553     -1.76073407
 Ti      7.83299588      9.59648136     -1.75768511
 Ti     14.39561168      9.59560913     -1.76648022
 Ti      7.81589198     15.51260085     -1.75790650
 Ti     14.40934091     15.51010728     -1.75630241
 Ti      4.52199207      2.19050397     -1.59161227
 Ti      4.52373824      5.15426536     -1.55230957
 Ti      4.52843688      8.11879900     -1.54955447
 Ti      4.52242957     14.02788300     -1.58772473
 Ti      4.53079138     11.07968169     -1.59126437
 Ti      4.51358792     17.00203362     -1.57907569
 Ti     11.08823270      2.18916184     -1.58733264
 Ti     17.65604673      2.19783817     -1.55248141
 Ti     11.08432363      5.15913192     -1.58883355
 Ti     17.66893902      5.16127300     -1.56595475
 Ti     11.08575948      8.12733818     -1.56890861
 Ti     17.68745030      8.12028738     -1.56060303
 Ti     11.11629116     14.03082356     -1.56258642
 Ti     17.68818458     14.03100085     -1.55812337
 Ti     11.09881007     11.08605676     -1.56207204
 Ti     17.69462097     11.07650451     -1.55489374
 Ti     11.10410228     16.98111534     -1.56242844
 Ti     17.67622831     16.99175535     -1.55176830
 Ti      1.30369970      2.19477698     -5.04772806
 Ti      1.31326858      5.12839073     -5.06048784
 Ti      1.30359635      8.09782824     -5.06656126
 Ti      1.29820627     14.00489532     -5.04681690
 Ti      1.30725828     11.07251972     -5.06745828
 Ti      1.18973891     16.97985252     -5.06112726
 Ti      7.88664190      2.17917051     -5.02767245
 Ti     14.46226053      2.18925818     -5.03217217
 Ti      7.90023798      5.11224747     -5.08518336
 Ti     14.48015323      5.11228181     -5.08395591
 Ti      7.89220098      8.10050586     -5.10119657
 Ti     14.47471673      8.10258285     -5.09878726
 Ti      7.90136460     14.00015542     -5.07435167
 Ti     14.48080143     14.05402072     -5.10816406
 Ti      7.90055760     11.08069982     -5.06893140
 Ti     14.49247153     11.08398312     -5.09432306
 Ti      7.79144382     16.97928002     -5.08718989
 Ti     14.46501303     16.99934982     -5.08067258
 Ti      4.50271475      0.67853286     -4.94553993
 Ti      4.59738169      3.66118026     -4.86025121
 Ti      4.58795066      6.64821928     -4.84268471
 Ti      4.60536881     12.54970432     -4.94445295
 Ti      4.55390161      9.59821891     -4.86271729
 Ti      4.49358231     15.51842562     -4.83720531
 Ti     11.07892972      0.67118858     -4.85049841
 Ti     17.67039963      0.74986841     -4.84503371
 Ti     11.18252030      3.65473495     -4.85592691
 Ti     17.76770073      3.67433079     -4.85125511
 Ti     11.15972404      6.63934225     -4.84267761
 Ti     17.67063633      6.63780116     -4.84905131
 Ti     11.17112152     12.54017942     -4.85760201
 Ti     17.76086193     12.53997692     -4.85494921
 Ti     11.16798488      9.57195295     -4.84076381
 Ti     17.76496603      9.55830793     -4.84740701
 Ti     11.15998408     15.52326962     -4.85603701
 Ti     17.68720513     15.52292102     -4.85539531
  O      4.50839834      0.71926992     -0.34010255
  O      4.51180337      3.65916205     -0.33721896
  O      4.51887021      6.64521145     -0.32875073
  O      4.51161413     12.54452216     -0.34718719
  O      4.51399177      9.60207771     -0.33527885
  O      4.50858683     15.51999133     -0.34330149
  O     11.09212688      0.71909360     -0.33393099
  O     17.67306178      0.71960864     -0.32624871
  O     11.08613898      3.66660444     -0.33859022
  O     17.67187301      3.67579707     -0.33129425
  O     11.08687446      6.64625509     -0.33282806
  O     17.67882754      6.64937818     -0.33545907
  O     11.09791677     12.54805853     -0.32934449
  O     17.68737917     12.54486418     -0.32962540
  O     11.08851999      9.59698890     -0.33086711
  O     17.68149603      9.59505575     -0.33078478
  O     11.10075215     15.51551655     -0.32912311
  O     17.68061647     15.52098124     -0.32755178
  O      2.52847458      2.19707998     -1.67679718
  O      2.52832193      5.15681189     -1.59992168
  O      2.53206906      8.11526864     -1.59912302
  O      2.53200488     14.03278665     -1.67630701
  O      2.53590867     11.07698556     -1.67230927
  O      2.52677125     17.00029427     -1.67740184
  O      9.11406052      2.19884860     -1.67864147
  O     15.66027481      2.20128230     -1.60682690
  O      9.11371744      5.15178411     -1.67959564
  O     15.68312353      5.15606203     -1.67034020
  O      9.11588751      8.11405535     -1.67463941
  O     15.69644398      8.11745240     -1.67484631
  O      9.12073918     14.04147867     -1.59814875
  O     15.69885201     14.03604208     -1.59316166
  O      9.11817370     11.07935990     -1.59758737
  O     15.69852913     11.07306338     -1.59923402
  O      9.11734449     16.99008436     -1.59691019
  O     15.68684695     16.99659036     -1.59685671
  O     -0.10072615      2.20175982     -1.60244580
  O     -0.09579378      5.15240906     -1.67670630
  O     -0.07514011      8.11249668     -1.67802483
  O     -0.07997509     14.03686181     -1.67843142
  O     -0.06251463     11.07923762     -1.67655237
  O     -0.08890155     16.99510939     -1.61109102
  O      6.53071700      2.19032508     -1.67172479
  O     13.06451304      2.19708269     -1.67898259
  O      6.52627547      5.15988572     -1.66892877
  O     13.06317794      5.16288646     -1.67592260
  O      6.53688575      8.12127107     -1.67584601
  O     13.06545909      8.11712948     -1.67680757
  O      6.53388118     14.03021317     -1.67708590
  O     13.11354058     14.03292781     -1.68743175
  O      6.54354296     11.07890128     -1.68159552
  O     13.07787612     11.07697217     -1.68239403
  O      6.51999909     16.98999569     -1.67025951
  O     13.08496487     16.98988190     -1.68200143
  O      4.53786602      0.70758103     -2.98954359
  O      4.54403684      3.67864201     -2.95059834
  O      4.54353763      6.63931244     -2.94590286
  O      4.54931403     12.55001857     -3.00414110
  O      4.54615327      9.59563606     -2.95107735
  O      4.54267882     15.51674688     -2.94921836
  O     11.04506561      0.70543087     -2.94757649
  O     17.62852426      0.71755324     -2.94208397
  O     11.12606359      3.67523189     -2.95208329
  O     17.64228330      3.67077609     -2.95163973
  O     11.04922967      6.64422526     -2.95127756
  O     17.63499851      6.63701585     -2.94918907
  O     11.04627626     12.55632668     -2.94631192
  O     17.63298724     12.55424168     -2.94694517
  O     11.04425365      9.59476593     -2.94705195
  O     17.71067856      9.59785626     -2.94637882
  O     11.11407381     15.51567955     -2.94738607
  O     17.62761844     15.51867240     -2.94770046
  O      1.16730567      0.72032719     -3.64614811
  O      1.24142946      3.67323106     -3.64559693
  O      1.25422791      6.63149921     -3.64836590
  O      1.24573761     12.55074781     -3.65661944
  O      1.24698371      9.58996293     -3.65482874
  O      1.24079256     15.51415465     -3.64850943
  O      7.84755798      0.65822843     -3.65317225
  O     14.42834009      0.70876926     -3.65114366
  O      7.75772666      3.67282632     -3.65992126
  O     14.41503644      3.67239459     -3.65396500
  O      7.84214381      6.64068554     -3.67133771
  O     14.41796467      6.63181367     -3.66446899
  O      7.92675950     12.55284276     -3.66165811
  O     14.51267915     12.55925359     -3.66583031
  O      7.92393007      9.59868971     -3.66747811
  O     14.42720808      9.60368487     -3.66342736
  O      7.85000805     15.50868029     -3.66170648
  O     14.51404225     15.51566398     -3.66595195
  O      5.75671982      2.16324301     -5.01435958
  O      5.75975303      5.15448081     -5.01530183
  O      5.76556015      8.14428322     -5.01539114
  O      5.75653567     14.03557632     -5.01636649
  O      5.78411909     11.08130282     -5.09072135
  O      5.76834411     16.97608362     -5.06744863
  O     12.34626893      2.16631666     -5.01136403
  O     18.92693223      2.16872457     -5.01182269
  O     12.35319463      5.15333855     -5.01211275
  O     18.92479343      5.15702773     -5.01288125
  O     12.38480073      8.10072512     -4.98445473
  O     18.93235633      8.05623231     -5.01259674
  O     12.35286853     14.03080392     -5.00936198
  O     18.92498483     14.03379252     -5.01470270
  O     12.37642473     11.06886562     -4.98555887
  O     18.93427013     11.04978872     -5.01564865
  O     12.37237753     16.98851532     -4.98794386
  O     18.92340113     17.02074082     -5.01352979
  O      3.22044698      2.16860736     -5.01483320
  O      3.22535877      5.15561492     -5.01428870
  O      3.22541749      8.14656077     -5.01556500
  O      3.21913862     14.03265332     -5.01720782
  O      3.22122825     11.05180552     -5.01514675
  O      3.19055941     16.98232112     -4.99293827
  O      9.80662525      2.17046481     -5.01076665
  O     16.39100653      2.17423529     -5.01482192
  O      9.80898175      5.15497252     -5.01507870
  O     16.39253663      5.14959923     -5.01645290
  O      9.91779221      8.13950322     -5.26757440
  O     16.39480123      8.14363750     -5.01513968
  O      9.93210408     14.03336686     -5.19536888
  O     16.50904620     14.03254601     -5.20296988
  O      9.94031990     11.07440600     -5.19705723
  O     16.52457610     11.06721736     -5.19701748
  O      9.89109481     16.97561302     -5.19278317
  O     16.48915131     16.99946280     -5.19553072
  O      1.25088733      0.71851802     -6.18411049
  O      1.24511498      3.66782190     -6.18930110
  O      1.25127594      6.62532430     -6.18717196
  O      1.25087407     12.55127117     -6.19242414
  O      1.24291261      9.58949157     -6.18831295
  O      1.24441005     15.50623474     -6.18118684
  O      7.75313584      0.71934483     -6.18526678
  O     14.41859379      0.72195880     -6.18694327
  O      7.83046563      3.64396538     -6.19141794
  O     14.34234357      3.65447390     -6.19246203
  O      7.75205245      6.62230557     -6.19408800
  O     14.42223371      6.61949175     -6.19834840
  O      7.75339785     12.55076102     -6.19457837
  O     14.33862573     12.56087697     -6.19719842
  O      7.82727799      9.60001139     -6.19093921
  O     14.41597948      9.59571130     -6.19876855
  O      7.75657171     15.49529594     -6.18846092
  O     14.33832771     15.52441085     -6.20041601
 Au     13.16335288     11.03866714      8.21905648
 Au      8.93057237      8.83690796      8.28770472
 Au     11.79743522      8.65369522      8.49175983
 Au     10.39852391     10.98633955      8.98127191
 Au     10.21632829      6.41494610      7.72186896
 Au     12.93050366      6.29388654      7.74373221
 Au      7.49099726      6.63141645      7.62350607
 Au     14.49971039      8.74319846      7.74648647
