#B3LYP/6-31+G(d) OPT FREQ

439, Energy = -13269.70863406 au

0 1
 Ti      1.57018239      0.72720472      4.67694697
 Ti      1.57693224      3.68900869      4.68192814
 Ti      1.57555166      6.63609552      4.66908717
 Ti      1.59733593     12.54631019      4.67883194
 Ti      1.56480588      9.59478130      4.66856053
 Ti      1.60561160     15.49884411      4.67709385
 Ti      7.86699157      0.72304268      4.73071142
 Ti     14.19306738      0.72541671      4.74423525
 Ti      7.87881950      3.66792737      4.72569559
 Ti     14.19265732      3.67527658      4.74444177
 Ti      7.89231079      6.62917751      4.86145058
 Ti     14.19860782      6.63174861      4.74294339
 Ti      7.87964762     12.54770944      4.72727542
 Ti     14.23312901     12.54553302      4.73521839
 Ti      7.87946764      9.59908488      4.75991617
 Ti     14.18627280      9.59535545      4.74584288
 Ti      7.89260225     15.49759035      4.73527139
 Ti     14.22248460     15.49985924      4.73588282
 Ti      4.71949559      2.17419205      5.29105608
 Ti      4.71742568      5.10116114      5.19192481
 Ti      4.70709623      8.10211130      5.19985777
 Ti      4.72661485     14.02879098      5.30795649
 Ti      4.72287393     11.08636688      5.29142678
 Ti      4.72236629     16.96313545      5.29282866
 Ti     11.03018197      2.15139500      5.28234735
 Ti     17.32419085      2.19537625      5.16411001
 Ti     11.02970727      4.94544035      4.89164457
 Ti     17.30239430      5.14716675      5.14250583
 Ti     11.04418818      8.33034547      4.85719518
 Ti     17.31802287      8.11115142      5.16829436
 Ti     11.04572118     14.08706804      5.28437980
 Ti     17.33627424     14.02680581      5.14852303
 Ti     11.05303208     11.20001452      5.26639285
 Ti     17.32778302     11.06869288      5.13633837
 Ti     11.03933499     16.98165773      5.28846977
 Ti     17.32752385     16.97001052      5.13275018
  O      4.72864188      0.71803592      3.75538645
  O      4.72400482      3.69386212      3.73784519
  O      4.72704702      6.62763876      3.69865697
  O      4.72301857     12.52593839      3.76038593
  O      4.72560957      9.59548126      3.75107280
  O      4.65982331     15.50081112      3.75602292
  O     11.03077336      0.71677889      3.76367111
  O     17.25546133      0.72024580      3.65757458
  O     11.03965516      3.61735384      3.67319072
  O     17.18718908      3.69797565      3.65630029
  O     11.03061387      6.67458902      3.75516868
  O     17.19200006      6.62464119      3.65399861
  O     11.02445879     12.53011800      3.75633430
  O     17.18480296     12.52842672      3.63249466
  O     11.10376845      9.67550741      3.67386831
  O     17.25483526      9.59710851      3.64509773
  O     11.02260407     15.50943466      3.75738253
  O     17.18608108     15.50639947      3.65009350
  O      4.72824001      0.71801408      6.38397789
  O      4.72518239      3.69297641      6.32823008
  O      4.72425779      6.62183023      6.31870870
  O      4.80711096      9.54557742      6.39245655
  O      4.72840320     12.52735884      6.38661955
  O      4.72835803     15.50024059      6.38693490
  O     11.03236872      0.71233543      6.39608457
  O     17.41180628      0.71920953      6.23702753
  O     11.02917431      3.70353890      6.24058118
  O     17.41106771      3.69071882      6.23642496
  O     17.34687171      6.62733939      6.23565575
  O     11.03337352     12.59973572      6.39269210
  O     17.41137682     12.53754066      6.22705344
  O     11.01426046      9.60758893      6.25853528
  O     17.41084918      9.59785157      6.23453322
  O     11.03165091     15.51284295      6.39208820
  O     17.41211941     15.49763756      6.23213656
  O      2.76350758      2.20653548      5.12175904
  O      2.76309489      5.17983288      5.12428062
  O      2.76823314      8.11752907      5.12347342
  O      2.75954223     14.01596651      5.19697036
  O      2.77546547     11.03404597      5.13110619
  O      2.76552507     17.00008443      5.12791505
  O      9.06613236      2.19624917      5.12363093
  O     15.35592069      2.20539863      5.19630364
  O      9.11967340      5.12334173      4.96445351
  O     15.30051260      5.13979636      5.27303111
  O      9.13014563      8.12410041      4.95842790
  O     15.33593811      8.12049543      5.19929725
  O      9.07349172     14.02226682      5.12275896
  O     15.36061448     14.01926407      5.20498081
  O      9.07468830     11.09607241      5.11249108
  O     15.35779937     11.03432363      5.19913621
  O      9.06978768     16.99128737      5.12631356
  O     15.35881160     16.99896428      5.20152462
  O      0.38850079      2.21114458      4.96311646
  O      0.38138756      5.17957693      4.96496129
  O      0.38588999      8.11060984      4.96519029
  O      0.38821901     14.01843478      4.89007037
  O      0.39512766     11.09393417      4.96299654
  O      0.39390260     16.94230049      4.96300702
  O      6.68078247      2.19928121      5.12348704
  O     12.98816375      2.20313777      5.11843115
  O      6.69667736      5.12951335      5.12122524
  O     12.93506463      5.19698680      5.04677369
  O      6.69699626      8.10950127      5.11071303
  O     12.94769341      8.09923253      5.12198591
  O      6.68172507     14.02556063      5.12209187
  O     12.98851232     14.01971748      5.04748874
  O      6.68477709     11.08943922      5.11841566
  O     12.99334769     11.09902247      5.12225643
  O      6.68331886     16.94624092      5.12294951
  O     12.99011656     16.94855945      5.11638200
 Ti      1.57311998      2.20164994      1.49672780
 Ti      1.57322321      5.15730617      1.50715750
 Ti      1.58513536      8.11397257      1.47343393
 Ti      1.56115606     14.02218931      1.50046108
 Ti      1.57507575     11.07529556      1.49938617
 Ti      1.57259135     16.97014307      1.50266562
 Ti      7.88332074      2.21933090      1.48699126
 Ti     14.24976086      2.20186662      1.50245996
 Ti      7.88289508      5.18194187      1.55910027
 Ti     14.24319928      5.16720164      1.51236750
 Ti      7.88084298      8.06969570      1.58094375
 Ti     14.25751871      8.11486703      1.50114914
 Ti      7.88026167     14.01025599      1.50948534
 Ti     14.20005864     14.02100537      1.49420336
 Ti      7.87986904     11.02368745      1.49735680
 Ti     14.25324501     11.07012934      1.50854920
 Ti      7.88154740     16.97248307      1.51686365
 Ti     14.22141742     16.97469524      1.51512837
 Ti      4.72874123      0.71975105      1.92337440
 Ti      4.71703975      3.66743150      1.88420377
 Ti      4.72182933      6.62440456      1.86460340
 Ti      4.72356913     12.54443495      1.91997196
 Ti      4.71450947      9.59471528      1.90811316
 Ti      4.69760282     15.49643732      1.91260575
 Ti     11.04346981      0.72596560      1.92585499
 Ti     17.39231451      0.71865347      1.76500373
 Ti     11.08261405      3.66263175      1.63075518
 Ti     17.35507983      3.68378324      1.76872381
 Ti     11.04167872      6.63816916      1.84585013
 Ti     17.38414923      6.63644384      1.77914594
 Ti     11.03114525     12.54871808      1.91877678
 Ti     17.34731698     12.54975432      1.76527746
 Ti     11.09794712      9.61146235      1.64257417
 Ti     17.40150590      9.59532899      1.77177996
 Ti     11.04929304     15.50888309      1.91065379
 Ti     17.33689743     15.49740857      1.75808938
  O      1.65057577      0.71951631      2.89152181
  O      1.65391752      3.69010808      2.89737178
  O      1.65620197      6.62482688      2.88499033
  O      1.65909697     12.53653638      2.89206637
  O      1.65526284      9.60022856      2.88790853
  O      1.65995860     15.50474793      2.88880691
  O      7.87566129      0.71651995      2.95300874
  O     14.25851823      0.72671285      2.95790430
  O      7.87332176      3.63920419      2.94606018
  O     14.25976887      3.69388426      2.95897732
  O      7.87708823      6.61669032      2.96551335
  O     14.26252935      6.62639437      2.95951173
  O      7.87791837     12.52894717      2.94805204
  O     14.26147650     12.52645976      2.95224722
  O      7.87400689      9.60376708      2.96209230
  O     14.25676497      9.59992348      2.96013654
  O      7.87838550     15.50476046      2.95468066
  O     14.26199673     15.50875688      2.95393642
  O      5.96231864      2.20049093      1.67853719
  O      5.95949853      5.13353692      1.67387401
  O      5.95013962      8.11360663      1.67842982
  O      5.95526995     14.02210681      1.68496369
  O      5.95701197     11.05256112      1.67926402
  O      5.95009612     16.95313869      1.68427044
  O     12.29427202      2.20383279      1.69351001
  O     18.62443876      2.21235971      1.83541995
  O     12.29002196      5.17771315      1.75386151
  O     18.61845809      5.14165312      1.83423210
  O     12.29499079      8.11067710      1.75338473
  O     18.64686342      8.10860187      1.83579189
  O     12.28668559     14.01856680      1.76184185
  O     18.61186729     14.02121290      1.83403157
  O     12.29031747     11.09244760      1.68833141
  O     18.62716985     11.09102866      1.83172482
  O     12.28910256     16.99091352      1.76110900
  O     18.61899283     16.94907395      1.83426107
  O      3.46793559      2.20024602      1.68621371
  O      3.46955731      5.13478484      1.67906691
  O      3.46793682      8.11184368      1.68266505
  O      3.46654608     14.01459952      1.68314729
  O      3.47223963     11.08426476      1.68511147
  O      3.46781599     16.99506312      1.68414093
  O      9.79117048      2.20961935      1.68131766
  O     16.13705657      2.20150270      1.53069285
  O      9.80277349      5.13755037      1.68548522
  O     16.13818023      5.18115776      1.52594096
  O      9.80048249      8.12041369      1.68584314
  O     16.14458113      8.11452394      1.52980947
  O      9.78486949     14.02047958      1.68904872
  O     16.11095137     14.01960240      1.52878444
  O      9.79104632     11.03881450      1.68366033
  O     16.14058898     11.03950481      1.52518833
  O      9.78870493     16.98960106      1.69053032
  O     16.13212585     16.99648650      1.53259236
  O      1.42399825      0.72105221      0.31646985
  O      1.42567386      3.68302218      0.31658120
  O      1.42325129      6.62270598      0.31807050
  O      1.43036226     12.54393121      0.31001250
  O      1.42541041      9.60431643      0.31418434
  O      1.43008559     15.50273939      0.31305689
  O      7.86978595      0.71998259      0.37734559
  O     14.17792340      0.72394810      0.38982175
  O      7.87621983      3.69538161      0.37275077
  O     14.17896027      3.69506418      0.38858821
  O      7.87684487      6.62297148      0.38796336
  O     14.17980712      6.63243824      0.38499150
  O      7.87046703     12.52928809      0.38265846
  O     14.18011277     12.53573711      0.38543373
  O      7.87423655      9.54487979      0.38705396
  O     14.17696034      9.59114694      0.38635879
  O      7.86945045     15.50151454      0.38682832
  O     14.17561348     15.50793725      0.38800968
 Ti      1.21202878      0.71942337     -1.75752175
 Ti      1.21975963      3.67805472     -1.74110369
 Ti      1.22111716      6.63676035     -1.75533981
 Ti      1.22849042     12.55412208     -1.76041713
 Ti      1.22816291      9.59460746     -1.76515972
 Ti      1.22709747     15.51555674     -1.75892704
 Ti      7.81592619      0.70815691     -1.75287415
 Ti     14.38158119      0.71494161     -1.74474248
 Ti      7.80441092      3.67854378     -1.75257935
 Ti     14.37667801      3.68492053     -1.74500898
 Ti      7.81736303      6.63892084     -1.77625323
 Ti     14.39331679      6.64344134     -1.77549943
 Ti      7.83696388     12.55658465     -1.73913837
 Ti     14.41282109     12.55049553     -1.76073407
 Ti      7.83299588      9.59648136     -1.75768511
 Ti     14.39561168      9.59560913     -1.76648022
 Ti      7.81589198     15.51260085     -1.75790650
 Ti     14.40934091     15.51010728     -1.75630241
 Ti      4.52199207      2.19050397     -1.59161227
 Ti      4.52373824      5.15426536     -1.55230957
 Ti      4.52843688      8.11879900     -1.54955447
 Ti      4.52242957     14.02788300     -1.58772473
 Ti      4.53079138     11.07968169     -1.59126437
 Ti      4.51358792     17.00203362     -1.57907569
 Ti     11.08823270      2.18916184     -1.58733264
 Ti     17.65604673      2.19783817     -1.55248141
 Ti     11.08432363      5.15913192     -1.58883355
 Ti     17.66893902      5.16127300     -1.56595475
 Ti     11.08575948      8.12733818     -1.56890861
 Ti     17.68745030      8.12028738     -1.56060303
 Ti     11.11629116     14.03082356     -1.56258642
 Ti     17.68818458     14.03100085     -1.55812337
 Ti     11.09881007     11.08605676     -1.56207204
 Ti     17.69462097     11.07650451     -1.55489374
 Ti     11.10410228     16.98111534     -1.56242844
 Ti     17.67622831     16.99175535     -1.55176830
 Ti      1.30369970      2.19477698     -5.04772806
 Ti      1.31326858      5.12839073     -5.06048784
 Ti      1.30359635      8.09782824     -5.06656126
 Ti      1.29820627     14.00489532     -5.04681690
 Ti      1.30725828     11.07251972     -5.06745828
 Ti      1.18973891     16.97985252     -5.06112726
 Ti      7.88664190      2.17917051     -5.02767245
 Ti     14.46226053      2.18925818     -5.03217217
 Ti      7.90023798      5.11224747     -5.08518336
 Ti     14.48015323      5.11228181     -5.08395591
 Ti      7.89220098      8.10050586     -5.10119657
 Ti     14.47471673      8.10258285     -5.09878726
 Ti      7.90136460     14.00015542     -5.07435167
 Ti     14.48080143     14.05402072     -5.10816406
 Ti      7.90055760     11.08069982     -5.06893140
 Ti     14.49247153     11.08398312     -5.09432306
 Ti      7.79144382     16.97928002     -5.08718989
 Ti     14.46501303     16.99934982     -5.08067258
 Ti      4.50271475      0.67853286     -4.94553993
 Ti      4.59738169      3.66118026     -4.86025121
 Ti      4.58795066      6.64821928     -4.84268471
 Ti      4.60536881     12.54970432     -4.94445295
 Ti      4.55390161      9.59821891     -4.86271729
 Ti      4.49358231     15.51842562     -4.83720531
 Ti     11.07892972      0.67118858     -4.85049841
 Ti     17.67039963      0.74986841     -4.84503371
 Ti     11.18252030      3.65473495     -4.85592691
 Ti     17.76770073      3.67433079     -4.85125511
 Ti     11.15972404      6.63934225     -4.84267761
 Ti     17.67063633      6.63780116     -4.84905131
 Ti     11.17112152     12.54017942     -4.85760201
 Ti     17.76086193     12.53997692     -4.85494921
 Ti     11.16798488      9.57195295     -4.84076381
 Ti     17.76496603      9.55830793     -4.84740701
 Ti     11.15998408     15.52326962     -4.85603701
 Ti     17.68720513     15.52292102     -4.85539531
  O      4.50839834      0.71926992     -0.34010255
  O      4.51180337      3.65916205     -0.33721896
  O      4.51887021      6.64521145     -0.32875073
  O      4.51161413     12.54452216     -0.34718719
  O      4.51399177      9.60207771     -0.33527885
  O      4.50858683     15.51999133     -0.34330149
  O     11.09212688      0.71909360     -0.33393099
  O     17.67306178      0.71960864     -0.32624871
  O     11.08613898      3.66660444     -0.33859022
  O     17.67187301      3.67579707     -0.33129425
  O     11.08687446      6.64625509     -0.33282806
  O     17.67882754      6.64937818     -0.33545907
  O     11.09791677     12.54805853     -0.32934449
  O     17.68737917     12.54486418     -0.32962540
  O     11.08851999      9.59698890     -0.33086711
  O     17.68149603      9.59505575     -0.33078478
  O     11.10075215     15.51551655     -0.32912311
  O     17.68061647     15.52098124     -0.32755178
  O      2.52847458      2.19707998     -1.67679718
  O      2.52832193      5.15681189     -1.59992168
  O      2.53206906      8.11526864     -1.59912302
  O      2.53200488     14.03278665     -1.67630701
  O      2.53590867     11.07698556     -1.67230927
  O      2.52677125     17.00029427     -1.67740184
  O      9.11406052      2.19884860     -1.67864147
  O     15.66027481      2.20128230     -1.60682690
  O      9.11371744      5.15178411     -1.67959564
  O     15.68312353      5.15606203     -1.67034020
  O      9.11588751      8.11405535     -1.67463941
  O     15.69644398      8.11745240     -1.67484631
  O      9.12073918     14.04147867     -1.59814875
  O     15.69885201     14.03604208     -1.59316166
  O      9.11817370     11.07935990     -1.59758737
  O     15.69852913     11.07306338     -1.59923402
  O      9.11734449     16.99008436     -1.59691019
  O     15.68684695     16.99659036     -1.59685671
  O     -0.10072615      2.20175982     -1.60244580
  O     -0.09579378      5.15240906     -1.67670630
  O     -0.07514011      8.11249668     -1.67802483
  O     -0.07997509     14.03686181     -1.67843142
  O     -0.06251463     11.07923762     -1.67655237
  O     -0.08890155     16.99510939     -1.61109102
  O      6.53071700      2.19032508     -1.67172479
  O     13.06451304      2.19708269     -1.67898259
  O      6.52627547      5.15988572     -1.66892877
  O     13.06317794      5.16288646     -1.67592260
  O      6.53688575      8.12127107     -1.67584601
  O     13.06545909      8.11712948     -1.67680757
  O      6.53388118     14.03021317     -1.67708590
  O     13.11354058     14.03292781     -1.68743175
  O      6.54354296     11.07890128     -1.68159552
  O     13.07787612     11.07697217     -1.68239403
  O      6.51999909     16.98999569     -1.67025951
  O     13.08496487     16.98988190     -1.68200143
  O      4.53786602      0.70758103     -2.98954359
  O      4.54403684      3.67864201     -2.95059834
  O      4.54353763      6.63931244     -2.94590286
  O      4.54931403     12.55001857     -3.00414110
  O      4.54615327      9.59563606     -2.95107735
  O      4.54267882     15.51674688     -2.94921836
  O     11.04506561      0.70543087     -2.94757649
  O     17.62852426      0.71755324     -2.94208397
  O     11.12606359      3.67523189     -2.95208329
  O     17.64228330      3.67077609     -2.95163973
  O     11.04922967      6.64422526     -2.95127756
  O     17.63499851      6.63701585     -2.94918907
  O     11.04627626     12.55632668     -2.94631192
  O     17.63298724     12.55424168     -2.94694517
  O     11.04425365      9.59476593     -2.94705195
  O     17.71067856      9.59785626     -2.94637882
  O     11.11407381     15.51567955     -2.94738607
  O     17.62761844     15.51867240     -2.94770046
  O      1.16730567      0.72032719     -3.64614811
  O      1.24142946      3.67323106     -3.64559693
  O      1.25422791      6.63149921     -3.64836590
  O      1.24573761     12.55074781     -3.65661944
  O      1.24698371      9.58996293     -3.65482874
  O      1.24079256     15.51415465     -3.64850943
  O      7.84755798      0.65822843     -3.65317225
  O     14.42834009      0.70876926     -3.65114366
  O      7.75772666      3.67282632     -3.65992126
  O     14.41503644      3.67239459     -3.65396500
  O      7.84214381      6.64068554     -3.67133771
  O     14.41796467      6.63181367     -3.66446899
  O      7.92675950     12.55284276     -3.66165811
  O     14.51267915     12.55925359     -3.66583031
  O      7.92393007      9.59868971     -3.66747811
  O     14.42720808      9.60368487     -3.66342736
  O      7.85000805     15.50868029     -3.66170648
  O     14.51404225     15.51566398     -3.66595195
  O      5.75671982      2.16324301     -5.01435958
  O      5.75975303      5.15448081     -5.01530183
  O      5.76556015      8.14428322     -5.01539114
  O      5.75653567     14.03557632     -5.01636649
  O      5.78411909     11.08130282     -5.09072135
  O      5.76834411     16.97608362     -5.06744863
  O     12.34626893      2.16631666     -5.01136403
  O     18.92693223      2.16872457     -5.01182269
  O     12.35319463      5.15333855     -5.01211275
  O     18.92479343      5.15702773     -5.01288125
  O     12.38480073      8.10072512     -4.98445473
  O     18.93235633      8.05623231     -5.01259674
  O     12.35286853     14.03080392     -5.00936198
  O     18.92498483     14.03379252     -5.01470270
  O     12.37642473     11.06886562     -4.98555887
  O     18.93427013     11.04978872     -5.01564865
  O     12.37237753     16.98851532     -4.98794386
  O     18.92340113     17.02074082     -5.01352979
  O      3.22044698      2.16860736     -5.01483320
  O      3.22535877      5.15561492     -5.01428870
  O      3.22541749      8.14656077     -5.01556500
  O      3.21913862     14.03265332     -5.01720782
  O      3.22122825     11.05180552     -5.01514675
  O      3.19055941     16.98232112     -4.99293827
  O      9.80662525      2.17046481     -5.01076665
  O     16.39100653      2.17423529     -5.01482192
  O      9.80898175      5.15497252     -5.01507870
  O     16.39253663      5.14959923     -5.01645290
  O      9.91779221      8.13950322     -5.26757440
  O     16.39480123      8.14363750     -5.01513968
  O      9.93210408     14.03336686     -5.19536888
  O     16.50904620     14.03254601     -5.20296988
  O      9.94031990     11.07440600     -5.19705723
  O     16.52457610     11.06721736     -5.19701748
  O      9.89109481     16.97561302     -5.19278317
  O     16.48915131     16.99946280     -5.19553072
  O      1.25088733      0.71851802     -6.18411049
  O      1.24511498      3.66782190     -6.18930110
  O      1.25127594      6.62532430     -6.18717196
  O      1.25087407     12.55127117     -6.19242414
  O      1.24291261      9.58949157     -6.18831295
  O      1.24441005     15.50623474     -6.18118684
  O      7.75313584      0.71934483     -6.18526678
  O     14.41859379      0.72195880     -6.18694327
  O      7.83046563      3.64396538     -6.19141794
  O     14.34234357      3.65447390     -6.19246203
  O      7.75205245      6.62230557     -6.19408800
  O     14.42223371      6.61949175     -6.19834840
  O      7.75339785     12.55076102     -6.19457837
  O     14.33862573     12.56087697     -6.19719842
  O      7.82727799      9.60001139     -6.19093921
  O     14.41597948      9.59571130     -6.19876855
  O      7.75657171     15.49529594     -6.18846092
  O     14.33832771     15.52441085     -6.20041601
 Au      9.32458308      9.55454367      7.74492444
 Au      8.64385878      6.56811834      7.54195732
 Au     11.26592961      6.65077057      7.30034742
 Au     10.36845399      6.87507784     10.06996660
 Au      7.77971449      5.82433096     10.14292057
 Au      6.57726437      9.38453580      7.91539576
 Au      8.18106639      8.59826104      9.95845913
 Au      6.04618151      6.36351143      8.14707404

