439
Energy = -13146.24963736 au
 Ti      1.64990776      3.73775363      8.16697097
 Ti      2.64938641      6.46434049      8.31431796
 Ti      3.28939765      9.28925500      7.98435829
 Ti      4.48771503     14.64710759      7.35138630
 Ti      3.61628521     12.00037010      7.25750112
 Ti      5.74870417     17.18119467      7.30405067
 Ti      6.30110852      1.81597216      6.13277435
 Ti     12.36204048     -0.24345960      4.77870127
 Ti      6.94473567      4.54653837      5.27503595
 Ti     13.15358461      2.06683213      3.45278924
 Ti      8.14474546      7.08402803      4.97605697
 Ti     13.75616795      4.91106938      3.26333915
 Ti     10.31167092     12.32287721      5.00062204
 Ti     15.61607485     10.24556011      3.02447213
 Ti      9.16249229      9.72086809      4.91674784
 Ti     14.95982703      7.42651018      2.91962641
 Ti     11.73529586     14.82136372      5.00938503
 Ti     17.89733912     12.75344379      3.03507172
 Ti      3.56063114      3.83004368      6.00829115
 Ti      4.63805419      6.86263822      6.22650395
 Ti      5.72474609      9.60398981      5.92626833
 Ti      8.26067609     14.73045959      6.57409584
 Ti      7.01307786     12.15211648      6.39701142
 Ti      9.33110922     17.37201728      6.47183340
 Ti      9.66365234      2.34881144      6.07316110
 Ti     16.00252867     -0.55364486      2.97350522
 Ti     10.49465001      4.47533283      4.22938273
 Ti     16.25268386      2.13772863      3.40946441
 Ti     11.53619533      7.50197262      3.99910777
 Ti     17.80100115      4.16955573      4.14739282
 Ti     13.95127991     12.42368745      5.30136803
 Ti     18.79291194      9.65078767      3.58389210
 Ti     12.77977773      9.85686565      4.80611779
 Ti     18.06170982      7.01944852      4.18179531
 Ti     15.39691244     14.80492471      4.54626239
 Ti     20.40332895     14.73776716      2.32984138
  O      2.99007748      2.84355456      4.70946545
  O      4.01628425      5.59629417      4.94914242
  O      5.04420181      8.34235778      4.73114130
  O      7.16386211     13.70488426      5.03792132
  O      6.06946193     11.12193783      4.79139612
  O      8.43273452     16.15332831      5.11241347
  O      9.69253560      1.02623687      4.79556717
  O     15.13177691     -2.36142841      2.71278633
  O      9.67541228      3.16531804      3.45457360
  O     16.30180893     -0.24172476      1.04874935
  O     10.70148271      5.99125417      3.14197414
  O     16.93971864      3.61254328      2.48023768
  O     12.60066929     11.33848813      3.51820915
  O     18.98546384      8.02985412      2.80440434
  O     11.57994922      8.88604275      2.95994566
  O     18.20176866      5.66481138      3.04175560
  O     13.70660642     13.70219102      3.84169557
  O     20.23613050     10.24287307      2.32442789
  O      2.99179701      2.75809587      7.44185409
  O      4.32698304      5.82454533      7.67608089
  O      5.27309336      8.35896995      7.37125132
  O      6.77183611     10.61907345      7.28683258
  O      8.02440170     13.21394001      7.51432827
  O      9.13833023     15.98653675      7.60335333
  O     10.00888498      1.17749470      7.36451217
  O     16.16947970     -1.34384369      4.73531712
  O     10.79373173      3.77739249      5.99607499
  O     17.33076026      0.63050509      3.27358538
  O     16.71804838      2.83946982      4.95135562
  O     13.54331002     10.78451691      6.14759772
  O     18.28232331      8.89765598      5.27854368
  O     12.43439225      8.20159226      5.50122193
  O     17.57103150      5.59152453      5.52107674
  O     14.89355816     13.69583624      6.08507660
  O     19.30738394     11.97022375      4.00536337
  O      2.03589990      4.96374633      6.72176810
  O      2.90916885      7.71440222      6.63132335
  O      4.01154881     10.31817343      6.39892583
  O      6.46574263     15.44193784      7.11945323
  O      5.28269835     12.84452014      7.19318822
  O      7.55757112     18.11683455      6.55535909
  O      7.87879443      2.98641368      6.01334031
  O     14.75916460      0.76945302      3.27631775
  O      8.74583076      5.27968584      4.97169827
  O     14.58071066      3.20794878      3.45153261
  O      9.83979272      7.88758595      4.95552304
  O     15.44417979      5.74651785      3.43689304
  O     12.06464825     13.05733982      5.60851337
  O     17.42043968     10.79496284      2.96010364
  O     10.89536591     10.46519749      5.20358268
  O     16.47231263      8.34521468      3.44628644
  O     13.32489815     15.92563458      4.97590953
  O     18.75409919     14.48860417      2.72304018
  O      2.19963289      4.96898030      9.35811762
  O      3.15387992      7.89542361      9.26422477
  O      3.47624498     11.01261656      8.73663535
  O      4.32755516     16.36490069      8.07262597
  O      3.00483071     13.71356793      7.75588295
  O      5.58049188     19.04081426      7.68011475
  O      5.51018200      3.62538925      6.17453751
  O     12.84698404      1.41863840      5.19880678
  O      6.61102158      6.23528994      5.91588262
  O     12.28111702      3.78433604      3.84301489
  O      7.63464196      8.82628349      5.59573208
  O     13.22954802      6.67715857      3.60108964
  O      9.91624620     14.03386783      5.66651910
  O     15.20352084     11.48935998      4.16768514
  O      8.73188116     11.48611048      5.58547112
  O     14.17509683      9.13421615      3.52500587
  O     11.02717130     16.54447657      5.68644918
  O     16.77657239     13.55476004      4.09411305
 Ti      0.19169262      5.64093666      6.66873778
 Ti      1.03350634      8.50765783      6.19047533
 Ti      2.09453692     11.10724004      3.74225980
 Ti      4.46632374     16.30718244      4.31830101
 Ti      3.48629289     13.61934235      4.08422450
 Ti      5.60494617     18.43278294      3.15991132
 Ti      5.66812227      3.36755325      2.36927682
 Ti     12.48114798      1.01324782      0.27870062
 Ti      6.76957781      5.99645427      1.91294794
 Ti     13.58105866      3.56423215      0.06472052
 Ti      7.87200881      8.68884851      1.79097029
 Ti     13.22931839      6.28419069     -0.00778786
 Ti     10.19676590     13.89153504      1.82371197
 Ti     15.57075825     12.27837879      0.00352501
 Ti      8.90947220     11.39668985      1.74112097
 Ti     14.33208778      9.25360458     -0.33507634
 Ti     11.22066214     16.52325182      1.76934030
 Ti     16.93707485     15.08333365     -2.36033360
 Ti      1.99284176      3.43028663      3.07221221
 Ti      3.42248818      5.94615680      3.10264163
 Ti      4.42120682      8.56510815      2.87801774
 Ti      6.80764970     13.86279128      3.28596149
 Ti      5.65067903     11.20216693      2.86418815
 Ti      8.13483179     16.35921074      3.37386361
 Ti      9.07228708      1.37926831      2.86497577
 Ti     14.12404763     -2.17884330     -0.17349270
 Ti      9.21763869      3.40078393      1.10048651
 Ti     15.74910678      0.27246983     -0.53724413
 Ti     10.23910724      6.00254579      1.11393297
 Ti     16.72733925      2.84040900     -1.05813788
 Ti     12.46867883     11.42776007      1.75750759
 Ti     16.96767666      9.86638806     -0.42425747
 Ti     11.15668058      8.93747698      0.88758165
 Ti     15.91235908      6.60983960     -0.39933066
 Ti     13.80087069     14.02429674      2.07017936
 Ti     18.05468347     13.12444213     -0.48474675
  O     -0.08069860      4.08638602      7.68505406
  O      0.62789735      7.00996727      7.76107006
  O      1.50801871      9.60399465      7.59151313
  O      4.17230619     14.80378101      5.51509033
  O      2.91004753     12.36258904      5.19647580
  O      5.20285009     17.56225213      5.52870999
  O      5.75969528      2.19789715      4.14922969
  O     12.20075820      0.16202629      2.96925770
  O      6.61929057      4.65110973      3.46423215
  O     13.00384757      2.29149404      1.51068652
  O      7.72493767      7.25467576      3.20756809
  O     13.31638503      4.88254500      1.52122124
  O      9.93104513     12.44470652      3.20886342
  O     15.67362564     10.23031318      0.95786756
  O      8.82028778      9.91374788      3.13571511
  O     14.65151670      7.55949798      1.03856731
  O     11.18142267     15.04031019      3.28528025
  O     17.00831086     12.91027824      1.13291274
  O      4.03690778      4.01595105      2.64495499
  O      5.17451016      6.78900284      2.54249991
  O      6.22881916      9.52187874      2.48034727
  O      8.36459334     14.66039330      2.63067975
  O      7.30961981     12.20049730      2.55500245
  O      9.61916647     17.17791996      2.63333881
  O     10.08034241      1.74646012      1.37323151
  O     15.75349800     -1.50530937     -1.20798125
  O     10.85793615      4.34592728      0.96458536
  O     17.11376830      1.11466816     -1.52704501
  O     11.87878487      7.10645538      0.89495235
  O     17.88314718      2.98412928      0.31770882
  O     14.25508598     12.13869188      1.52622959
  O     20.50381459      9.59668145     -1.50002096
  O     12.99163675      9.76818724      0.80245341
  O     19.37423731      6.93099048     -1.28615279
  O     14.96946626     14.15038389      0.49680373
  O     21.64901152     12.28891351     -1.68280056
  O      1.81530143      5.19345335      3.28570410
  O      2.90980760      7.72361626      3.20610690
  O      3.92467640     10.54316242      3.12092491
  O      6.05823623     15.82610631      3.43549426
  O      5.01704418     13.15858966      3.19431123
  O      7.43952300     18.08624973      3.27556167
  O      7.79450311      2.52892797      1.99535896
  O     13.86542478     -0.15791366     -0.09743937
  O      8.58712565      5.26955812      1.52350531
  O     15.13725482      2.43297810     -0.15485806
  O      9.60998027      8.02528895      1.28023538
  O     14.86506773      5.13738152     -0.15316406
  O     11.98717296     13.22081129      1.52345893
  O     17.33300337     11.50278996     -1.11671511
  O     10.71626210     10.71141822      1.21295591
  O     16.07979832      8.42029744     -1.11621632
  O     12.93869104     15.58123090      1.27490948
  O     18.61287547     14.58395351     -1.66937448
  O      0.38641245      3.21605435      4.01073766
  O      0.78746806      6.83481393      5.19596736
  O      1.65227843      9.69467585      4.79628828
  O      2.76487433     15.36786477      3.58839457
  O      2.35080980     13.08056288      2.54321632
  O      3.92773879     17.63205779      3.27054758
  O      5.34259855      1.58527503      1.67652982
  O     11.18717546     -0.22251241      0.25092946
  O      6.06544818      4.57298645      0.94951761
  O     12.37012134      2.29218144     -0.95204920
  O      7.08874063      7.41554893      0.71039085
  O     12.68396032      4.87899911     -1.03731177
  O      9.29041507     12.82490241      0.62925501
  O     14.96012012     10.70270154     -1.27883785
  O      8.12248574     10.16929964      0.62339235
  O     13.86386557      7.56052607     -1.21961908
  O     10.31674058     15.28442488      0.72231831
  O     16.31222807     13.54554435     -1.58676331
 Ti     -1.41046934      4.71377469      0.77469346
 Ti     -0.25586090      7.43030659      0.57180789
 Ti      0.88485435     10.15054380      0.34110948
 Ti      3.17670926     15.58827755     -0.09900720
 Ti      2.03144899     12.86759999      0.11322351
 Ti      4.32031373     18.31151517     -0.31405389
 Ti      4.40872793      2.11746503     -0.95958704
 Ti     10.20212842     -0.44740416     -2.68176431
 Ti      5.54654389      4.85294126     -1.17377261
 Ti     11.34546421      2.28512892     -2.89820165
 Ti      6.69557108      7.57052675     -1.41672578
 Ti     12.49517808      4.99981807     -3.14854688
 Ti      9.00975114     13.00217931     -1.81950090
 Ti     14.79911949     10.42258619     -3.57201766
 Ti      7.85731481     10.28290000     -1.61954632
 Ti     13.64049210      7.71281136     -3.35664420
 Ti     10.12842476     15.72889493     -2.04845343
 Ti     15.94097606     13.14485556     -3.78355157
 Ti      2.12117092      4.76408306     -0.04533535
 Ti      3.27868393      7.48682265     -0.22500739
 Ti      4.42919923     10.21047719     -0.44066881
 Ti      6.69709491     15.64707192     -0.90848676
 Ti      5.56419332     12.93334871     -0.69821624
 Ti      7.84098533     18.38465060     -1.11561626
 Ti      7.91090382      2.19165618     -1.77077708
 Ti     13.71417597     -0.37331422     -3.46796006
 Ti      9.05477829      4.92383786     -1.98866301
 Ti     14.86709496      2.34672615     -3.70130949
 Ti     10.20848679      7.65150719     -2.18721823
 Ti     16.02835854      5.05980119     -3.91770756
 Ti     12.51848441     13.06699074     -2.62145396
 Ti     18.31383790     10.49374062     -4.34831955
 Ti     11.36522386     10.36639313     -2.40072793
 Ti     17.17863960      7.77473158     -4.13056955
 Ti     13.64790379     15.78426037     -2.83412225
 Ti     19.44918414     13.22030785     -4.55585427
 Ti     -1.65068039      6.15684562     -2.52233161
 Ti     -0.51202238      8.85074316     -2.75193561
 Ti      0.62532673     11.58486204     -2.97266273
 Ti      2.90867372     17.01720408     -3.38478757
 Ti      1.77786427     14.31839764     -3.19230783
 Ti      3.95882263     19.79538808     -3.58781769
 Ti      4.15253801      3.56417706     -4.23595342
 Ti      9.95257800      0.99891371     -5.97314725
 Ti      5.28241801      6.25767067     -4.50962502
 Ti     11.08391228      3.68126865     -6.24170556
 Ti      6.42578977      9.00882337     -4.74172210
 Ti     12.23068625      6.43323712     -6.47350038
 Ti      8.72102472     14.42838277     -5.15030748
 Ti     14.53340909     11.90296517     -6.91990848
 Ti      7.59357495     11.74434483     -4.93110808
 Ti     13.39969339      9.16722303     -6.69219206
 Ti      9.77190144     17.21091255     -5.35184385
 Ti     15.66514063     14.61606365     -7.10497314
 Ti      0.61144955      3.50641797     -3.15568563
 Ti      1.87063968      6.20842550     -3.31698353
 Ti      3.02140647      8.95775249     -3.51632381
 Ti      5.28979258     14.38055671     -4.05093085
 Ti      4.12597130     11.68406481     -3.74263366
 Ti      6.36753015     17.14978039     -4.13570350
 Ti      6.43224023      0.92118738     -4.79601149
 Ti     12.27546138     -1.58758991     -6.53281861
 Ti      7.67507388      3.62390553     -5.04698666
 Ti     13.48970253      1.06329852     -6.77857337
 Ti      8.81194822      6.37639076     -5.24678097
 Ti     14.54993876      3.82584167     -6.96788116
 Ti     11.09829810     11.79772280     -5.69621960
 Ti     16.90874922      9.21720287     -7.42949986
 Ti      9.95303982      9.06933183     -5.46185246
 Ti     15.76216204      6.47396386     -7.20499755
 Ti     12.24170033     14.54468326     -5.91021307
 Ti     17.99643040     11.98858356     -7.62894847
  O      1.87961597      3.37014639      1.26980069
  O      3.01950301      6.07164723      1.05640796
  O      4.18196830      8.81394336      0.84404272
  O      6.45033121     14.24130662      0.39625127
  O      5.31856259     11.53464413      0.62253598
  O      7.59856718     16.97799832      0.18291177
  O      7.68572996      0.79187347     -0.45851316
  O     13.49005729     -1.78472623     -2.18468860
  O      8.81823694      3.50433767     -0.67724493
  O     14.63004418      0.93385144     -2.40569153
  O      9.97191452      6.24333062     -0.89007683
  O     15.78417042      3.66519863     -2.62926594
  O     12.26331058     11.66500463     -1.32178605
  O     18.07156580      9.08195210     -3.05759593
  O     11.11419010      8.95552261     -1.10468743
  O     16.92612887      6.37224031     -2.84116581
  O     13.41262699     14.39217177     -1.53960797
  O     19.21626804     11.82076955     -3.27174194
  O      0.34306481      5.55386967      0.39736938
  O      1.50752341      8.27224889      0.25463382
  O      2.65432153     10.99076175      0.03778612
  O      4.92014908     16.43423649     -0.46974220
  O      3.78242176     13.71499090     -0.25049068
  O      6.06201415     19.16465769     -0.68670831
  O      6.14939682      2.97695615     -1.33928660
  O     11.94122502      0.41332726     -2.99476774
  O      7.28998042      5.69205958     -1.55633863
  O     13.08602368      3.12337505     -3.27823949
  O      8.43798832      8.41454217     -1.76905106
  O     14.24095892      5.84103417     -3.50292643
  O     10.75360155     13.85947643     -2.13078008
  O     16.55241085     11.27861016     -3.85836884
  O      9.60679844     11.13708337     -1.91266728
  O     15.40545580      8.55479543     -3.64716479
  O     11.89041539     16.57171223     -2.34460205
  O     17.68491223     14.00538114     -4.07554279
  O     -1.95300947      6.58487595      1.16112027
  O     -0.82851382      9.29854158      0.87233270
  O      0.33324665     12.01201290      0.64887560
  O      2.61830974     17.46079183      0.21595473
  O      1.49125620     14.73464081      0.42973073
  O      3.77187669     20.18159685      0.06646722
  O      3.87038482      3.98037886     -0.65151384
  O      9.63151822      1.42853234     -2.38010007
  O      5.01479548      6.71223258     -0.86509632
  O     10.77728733      4.15570581     -2.59397183
  O      6.16668630      9.43103804     -1.09138826
  O     11.92070858      6.87098127     -2.81174430
  O      8.44717732     14.86495135     -1.52446351
  O     14.24634712     12.29154474     -3.26780525
  O      7.31395705     12.14789537     -1.31524068
  O     13.07395661      9.58761140     -3.03711912
  O      9.58057773     17.59136144     -1.73096638
  O     15.36532179     15.02115969     -3.47157336
  O      1.18346042      3.44652281     -1.28560082
  O      2.34759846      6.17425450     -1.46731671
  O      3.49256375      8.89632017     -1.67945960
  O      5.76603980     14.33053965     -2.16980374
  O      4.63592210     11.61353729     -1.90159862
  O      6.92154074     17.05870713     -2.33246033
  O      6.93103572      0.89506732     -2.95917945
  O     12.74148058     -1.67176720     -4.68897593
  O      8.14888857      3.59395987     -3.20231029
  O     13.89227849      1.03839899     -4.91803760
  O      9.22871654      6.35371163     -3.39869633
  O     15.03280552      3.76832563     -5.13096015
  O     11.51215438     11.79027850     -3.82604731
  O     17.31831709      9.20933635     -5.56155256
  O     10.36569304      9.06823440     -3.60937019
  O     16.24448894      6.46078954     -5.36499577
  O     12.71526126     14.48460584     -4.06163402
  O     18.45896591     11.93696892     -5.77793115
  O     -1.96109679      4.80244687     -1.03026004
  O     -0.75446437      7.48830741     -1.26547757
  O      0.39927461     10.20323564     -1.48812743
  O      2.67701236     15.64903390     -1.92725874
  O      1.53441814     12.92632901     -1.70906517
  O      3.82004033     18.37522907     -2.13514647
  O      3.90261317      2.12993954     -2.79215861
  O      9.72460663     -0.40039599     -4.52739513
  O      4.98655940      4.93699068     -2.99572715
  O     10.85738889      2.32967996     -4.74361191
  O      6.20480482      7.63301644     -3.24626285
  O     12.00077552      5.04981913     -4.97118637
  O      8.56674587     13.03517109     -3.69215070
  O     14.37453553     10.46248165     -5.43147373
  O      7.42105992     10.32044272     -3.48068989
  O     13.15766915      7.77850412     -5.19023043
  O      9.64133124     15.78282687     -3.88841671
  O     15.51819171     13.18008083     -5.64842883
  O      2.27215392      4.38301567     -3.66092475
  O      3.43051912      7.13201185     -3.88165931
  O      4.59100626      9.87857043     -4.10219903
  O      6.85944116     15.29860448     -4.53214175
  O      5.72195887     12.57440925     -4.39460700
  O      7.99235778     17.99939012     -4.79970271
  O      8.08379526      1.80556998     -5.39406481
  O     13.88640961     -0.76887989     -7.12813806
  O      9.24401547      4.54915872     -5.61532987
  O     15.03904936      1.97944762     -7.34740723
  O     10.41837233      7.24558516     -5.81286949
  O     16.16617472      4.64200901     -7.56141597
  O     12.67511715     12.71113963     -6.26263804
  O     18.46909815     10.14075205     -7.99919844
  O     11.55770900      9.97781898     -6.02906313
  O     17.32387760      7.39365378     -7.78405473
  O     13.84110852     15.42202776     -6.46374926
  O     19.62230813     12.88753345     -8.21636817
  O      0.03800671      5.38105144     -2.99367683
  O      1.19679610      8.12536740     -3.21316639
  O      2.35233556     10.87527227     -3.43341737
  O      4.62100060     16.28947473     -3.86434457
  O      3.47147012     13.54798361     -3.64464404
  O      5.74225918     19.01169048     -4.04945679
  O      5.84649627      2.80376755     -4.72480971
  O     11.65194095      0.22924857     -6.46342168
  O      7.00075132      5.54696653     -4.94811463
  O     12.80266003      2.96426449     -6.68326046
  O      8.18164767      8.25774624     -5.43819061
  O     13.96204073      5.71605238     -6.90182809
  O     10.49147183     13.66828107     -5.80407613
  O     16.28762314     11.09258568     -7.54380294
  O      9.35478500     10.94465373     -5.59119854
  O     15.15699347      8.35995540     -7.32503611
  O     11.59303025     16.38934786     -6.00622830
  O     17.41864534     13.82788655     -7.74865493
  O     -2.57553035      4.86256690     -3.49340826
  O     -1.44228433      7.57661502     -3.71283925
  O     -0.29336652     10.29325576     -3.92897313
  O      1.99490381     15.74193359     -4.36783853
  O      0.84443592     13.02183301     -4.14491462
  O      3.13417677     18.46084431     -4.57169975
  O      3.15715003      2.31739292     -5.20738104
  O      9.03427293     -0.29002379     -6.96497712
  O      4.35386373      4.97624399     -5.44781905
  O     10.09880568      2.43619676     -7.16492938
  O      5.43496995      7.74533703     -5.64781686
  O     11.31345971      5.13117680     -7.40874516
  O      7.72703993     13.19545978     -6.08274584
  O     13.53607192     10.62638990     -7.82066492
  O      6.65286188     10.45347238     -5.88264206
  O     12.45797438      7.86998226     -7.62543137
  O      8.86939325     15.90119929     -6.29330699
  O     14.68017785     13.35130413     -8.04068206
 Au     11.04991272      5.66992932      7.11589557
 Au      8.54184584      9.83652688      8.42492910
 Au     11.06243607     10.94642494      8.09838958
 Au     10.49326095      9.19376643     10.22236664
 Au     11.31900310      8.24000169      7.68982348
 Au      8.38058544      7.65497430     11.03654287
 Au      8.97385554      6.89628094      8.30893603
 Au      6.55530303      7.88259544      9.08033963
