#B3LYP/6-31+G(d) OPT FREQ

439, Energy = -13269.72389970 au

0 1
 Ti      1.56906461      0.72508930      4.68719191
 Ti      1.57545947      3.68128495      4.68584146
 Ti      1.60817812      6.63546377      4.67116251
 Ti      1.59116706     12.54594054      4.68005421
 Ti      1.57846928      9.59487657      4.67003655
 Ti      1.60829813     15.49724990      4.67743349
 Ti      7.86803353      0.72676367      4.73687661
 Ti     14.18782395      0.72832702      4.74267763
 Ti      7.87290544      3.68687805      4.74116641
 Ti     14.19189578      3.67644264      4.74485556
 Ti      7.90564046      6.64131721      4.74131910
 Ti     14.19061866      6.63169497      4.74636485
 Ti      7.86561053     12.54488024      4.73705547
 Ti     14.19790327     12.55435876      4.72634480
 Ti      7.89007420      9.59453064      4.74724688
 Ti     14.18658107      9.60334787      4.79468266
 Ti      7.89469956     15.49908111      4.73738666
 Ti     14.23739492     15.50154120      4.73391517
 Ti      4.71438563      2.20227237      5.31883275
 Ti      4.72666933      5.15563319      5.29800717
 Ti      4.72756371      8.11180198      5.31503181
 Ti      4.72163924     14.01864222      5.32120845
 Ti      4.71904818     11.06314298      5.29746044
 Ti      4.72227175     16.96847637      5.29614687
 Ti     11.03239672      2.14119900      5.29179872
 Ti     17.32310978      2.20737314      5.15670796
 Ti     11.03077810      4.94749871      4.79265373
 Ti     17.34122490      5.13969468      5.11561458
 Ti     11.03698859      8.35846006      4.85208019
 Ti     17.33922505      8.19334986      5.06312350
 Ti     11.04540686     14.07161871      5.29050687
 Ti     17.32931469     14.09169858      5.13150373
 Ti     11.03239544     11.18373645      5.26321412
 Ti     17.32351810     11.16529070      5.13241221
 Ti     11.04696434     16.96655760      5.28896033
 Ti     17.32780276     17.00379621      5.13087570
  O      4.73055002      0.71783818      3.75437048
  O      4.73019409      3.69506013      3.75362335
  O      4.72406152      6.62367554      3.75388848
  O      4.72388239     12.53210464      3.75755709
  O      4.72670131      9.59905914      3.74976084
  O      4.66038348     15.50442882      3.75305240
  O     11.02979487      0.71626653      3.76580485
  O     17.25837532      0.72367177      3.66444520
  O     11.02087642      3.56318188      3.67149753
  O     17.26201025      3.68969495      3.66366656
  O     10.95691208      6.62306294      3.75379291
  O     17.25993902      6.62209907      3.60831181
  O     11.02061391     12.53655725      3.75347305
  O     17.19011952     12.52362560      3.65161698
  O     11.02269256      9.67184585      3.64067116
  O     17.26262691      9.59717116      3.62070928
  O     11.02066339     15.51171907      3.75723556
  O     17.18568048     15.50568104      3.65614613
  O      4.72990862      0.72129207      6.38546835
  O      4.73018971      3.69050108      6.38652640
  O      4.72723581      6.62864686      6.38362099
  O      4.72895530      9.59194844      6.38501137
  O      4.73040714     12.53038662      6.38647196
  O      4.72863827     15.50382949      6.38732299
  O     11.03111052      0.70963685      6.39861308
  O     17.41025079      0.72761927      6.24023039
  O     11.03017250      3.71352193      6.24111005
  O     17.40494096      3.70596552      6.23603333
  O     17.33808838      6.67890971      6.22729422
  O     11.03478721     12.59826930      6.39410732
  O     17.41324621     12.58672181      6.23418798
  O     11.03103809      9.59966635      6.16863994
  O     17.32930650      9.60360902      6.23085246
  O     11.02964705     15.51105254      6.39373618
  O     17.41239403     15.51426478      6.23684758
  O      2.76825345      2.20622021      5.11977374
  O      2.76630579      5.13737129      5.12756603
  O      2.76830236      8.11542096      5.12381431
  O      2.75783510     14.01556679      5.19655536
  O      2.76545172     11.04159066      5.12563192
  O      2.76500819     17.00154817      5.12939742
  O      9.06315654      2.20368689      5.12331967
  O     15.35800929      2.20650686      5.19752962
  O      9.10139758      5.17715949      5.11959795
  O     15.36030770      5.13302096      5.04781455
  O      9.11752547      8.10552850      5.12617407
  O     15.36290331      8.11148548      5.03025903
  O      9.06908751     14.01774326      5.12216791
  O     15.35859224     14.02226292      5.20392078
  O      9.06620285     11.09641944      5.12464630
  O     15.35736489     11.09694704      5.19023172
  O      9.06938554     16.99516050      5.12520410
  O     15.35999351     17.00254773      5.20214827
  O      0.39472616      2.20710748      5.03430556
  O      0.38922663      5.19045431      4.96929168
  O      0.38863569      8.11033719      4.96587354
  O      0.38707939     14.02173480      4.89001368
  O      0.38699009     11.08734519      4.96960369
  O      0.39323688     16.94173720      4.96379305
  O      6.68423116      2.21118248      5.12284371
  O     12.98256829      2.19601931      5.12068913
  O      6.69940425      5.18266163      5.12833641
  O     12.92421579      5.18890685      4.96735474
  O      6.70004195      8.11334341      5.12438714
  O     12.93094699      8.09743555      5.04347333
  O      6.68282791     14.02396332      5.12237129
  O     12.98171339     14.03005677      5.05004530
  O      6.68882499     11.03921476      5.12421941
  O     12.97580239     11.10229220      5.05025781
  O      6.68535694     16.94891037      5.12263336
  O     12.99037383     16.94873369      5.11715017
 Ti      1.59080725      2.20024237      1.49736926
 Ti      1.58554090      5.15506060      1.50251419
 Ti      1.58720765      8.11386273      1.47535414
 Ti      1.56636576     14.02286538      1.49986411
 Ti      1.58184506     11.07467278      1.50055791
 Ti      1.57728413     16.97208364      1.50593960
 Ti      7.87796920      2.20437056      1.51069299
 Ti     14.25788470      2.20770615      1.49910125
 Ti      7.87641828      5.16218039      1.51416061
 Ti     14.25202578      5.17022778      1.52022895
 Ti      7.87661186      8.11174799      1.51175649
 Ti     14.26158527      8.11529962      1.52360799
 Ti      7.87987189     14.02310581      1.50937322
 Ti     14.19999793     14.00960706      1.48566415
 Ti      7.87861254     11.06398845      1.52190209
 Ti     14.25291338     11.05010262      1.52378118
 Ti      7.88186720     16.97213781      1.51723508
 Ti     14.21719381     16.97397610      1.51584740
 Ti      4.72896970      0.72372422      1.93295753
 Ti      4.72520100      3.68211921      1.93006056
 Ti      4.71677449      6.63579547      1.93100649
 Ti      4.72011659     12.55106758      1.92876907
 Ti      4.72030878      9.60070204      1.92637013
 Ti      4.70326283     15.49999891      1.91881133
 Ti     11.04393872      0.72169724      1.93194542
 Ti     17.39409929      0.71727901      1.75477771
 Ti     11.08355579      3.64545816      1.60410981
 Ti     17.39164077      3.67419246      1.75366080
 Ti     11.03817729      6.62864475      1.82183556
 Ti     17.38650781      6.62638140      1.76497087
 Ti     11.03216032     12.54918192      1.92254863
 Ti     17.35152596     12.54835776      1.75657504
 Ti     11.09539365      9.61262674      1.63725169
 Ti     17.40763858      9.59353460      1.73301465
 Ti     11.04995820     15.50579780      1.91386850
 Ti     17.33975744     15.49791395      1.74385244
  O      1.64978360      0.72046080      2.89801560
  O      1.65309694      3.68621665      2.89975083
  O      1.65820874      6.62464738      2.88734691
  O      1.65799869     12.53664754      2.89214833
  O      1.65441551      9.60098322      2.88732745
  O      1.65971219     15.50470667      2.88866614
  O      7.87655875      0.72084391      2.95459886
  O     14.25865494      0.72124009      2.95789472
  O      7.87767606      3.69587744      2.95838425
  O     14.25702808      3.63227050      2.95434492
  O      7.88210126      6.62558129      2.95509022
  O     14.25834883      6.62325316      2.94783457
  O      7.87888348     12.53043732      2.95448519
  O     14.26239605     12.53177256      2.94352847
  O      7.87972906      9.59690505      2.95987104
  O     14.25649653      9.60454026      2.96574661
  O      7.87924641     15.50619286      2.95479688
  O     14.26364768     15.50796194      2.95305682
  O      5.97074874      2.20606553      1.68285828
  O      5.96540470      5.17297839      1.67999600
  O      5.96705350      8.11309051      1.68356310
  O      5.96289412     14.02424676      1.68537150
  O      5.96284973     11.07917453      1.68130771
  O      5.95933455     16.95651281      1.68464979
  O     12.29085679      2.20036031      1.68879045
  O     18.64434809      2.20248363      1.83397207
  O     12.28590271      5.13844763      1.75930237
  O     18.63841804      5.13739180      1.82365385
  O     12.28829419      8.10443918      1.75779940
  O     18.65195965      8.10971747      1.82762191
  O     12.28726790     14.01960843      1.76138010
  O     18.61203680     14.02013555      1.83520992
  O     12.28768976     11.08779382      1.69018423
  O     18.62767418     11.09283578      1.83021707
  O     12.28798778     16.99062167      1.76115993
  O     18.61949146     16.94850315      1.83536767
  O      3.47497027      2.20451616      1.68899535
  O      3.47660818      5.14145965      1.68514864
  O      3.47334982      8.11458126      1.68645918
  O      3.46650861     14.01823546      1.68264251
  O      3.47358632     11.08404219      1.68478645
  O      3.46976452     16.99689415      1.68464476
  O      9.78320775      2.20703062      1.68131850
  O     16.14740056      2.20110950      1.53090258
  O      9.79357965      5.13532428      1.68121958
  O     16.14416128      5.13371980      1.53019783
  O      9.79092824      8.11077906      1.68086698
  O     16.14661802      8.11240345      1.52666993
  O      9.78390431     14.02103698      1.68910683
  O     16.12408346     14.01842337      1.52912605
  O      9.78936232     11.04417418      1.67966435
  O     16.14396008     11.04173167      1.52435166
  O      9.78753301     16.99032010      1.69053643
  O     16.13695931     16.99683629      1.53341915
  O      1.42528948      0.71890231      0.31641968
  O      1.42911633      3.67971688      0.31506790
  O      1.42517031      6.62329958      0.31772630
  O      1.43017226     12.54448362      0.30975112
  O      1.42558753      9.60503706      0.31360762
  O      1.42906499     15.50378265      0.31345674
  O      7.87048217      0.72733077      0.38249479
  O     14.17899989      0.71879790      0.38893471
  O      7.87438610      3.68948741      0.37071777
  O     14.17885998      3.69351143      0.38568507
  O      7.87825404      6.62975218      0.37167065
  O     14.18101354      6.62567421      0.39003595
  O      7.87204845     12.53528590      0.38336642
  O     14.18100680     12.53049547      0.38660207
  O      7.87348805      9.59148843      0.37850059
  O     14.17680915      9.58546339      0.38827527
  O      7.87074547     15.50414226      0.38464313
  O     14.17732528     15.50745683      0.38731828
 Ti      1.21202878      0.71942337     -1.75752175
 Ti      1.21975963      3.67805472     -1.74110369
 Ti      1.22111716      6.63676035     -1.75533981
 Ti      1.22849042     12.55412208     -1.76041713
 Ti      1.22816291      9.59460746     -1.76515972
 Ti      1.22709747     15.51555674     -1.75892704
 Ti      7.81592619      0.70815691     -1.75287415
 Ti     14.38158119      0.71494161     -1.74474248
 Ti      7.80441092      3.67854378     -1.75257935
 Ti     14.37667801      3.68492053     -1.74500898
 Ti      7.81736303      6.63892084     -1.77625323
 Ti     14.39331679      6.64344134     -1.77549943
 Ti      7.83696388     12.55658465     -1.73913837
 Ti     14.41282109     12.55049553     -1.76073407
 Ti      7.83299588      9.59648136     -1.75768511
 Ti     14.39561168      9.59560913     -1.76648022
 Ti      7.81589198     15.51260085     -1.75790650
 Ti     14.40934091     15.51010728     -1.75630241
 Ti      4.52199207      2.19050397     -1.59161227
 Ti      4.52373824      5.15426536     -1.55230957
 Ti      4.52843688      8.11879900     -1.54955447
 Ti      4.52242957     14.02788300     -1.58772473
 Ti      4.53079138     11.07968169     -1.59126437
 Ti      4.51358792     17.00203362     -1.57907569
 Ti     11.08823270      2.18916184     -1.58733264
 Ti     17.65604673      2.19783817     -1.55248141
 Ti     11.08432363      5.15913192     -1.58883355
 Ti     17.66893902      5.16127300     -1.56595475
 Ti     11.08575948      8.12733818     -1.56890861
 Ti     17.68745030      8.12028738     -1.56060303
 Ti     11.11629116     14.03082356     -1.56258642
 Ti     17.68818458     14.03100085     -1.55812337
 Ti     11.09881007     11.08605676     -1.56207204
 Ti     17.69462097     11.07650451     -1.55489374
 Ti     11.10410228     16.98111534     -1.56242844
 Ti     17.67622831     16.99175535     -1.55176830
 Ti      1.30369970      2.19477698     -5.04772806
 Ti      1.31326858      5.12839073     -5.06048784
 Ti      1.30359635      8.09782824     -5.06656126
 Ti      1.29820627     14.00489532     -5.04681690
 Ti      1.30725828     11.07251972     -5.06745828
 Ti      1.18973891     16.97985252     -5.06112726
 Ti      7.88664190      2.17917051     -5.02767245
 Ti     14.46226053      2.18925818     -5.03217217
 Ti      7.90023798      5.11224747     -5.08518336
 Ti     14.48015323      5.11228181     -5.08395591
 Ti      7.89220098      8.10050586     -5.10119657
 Ti     14.47471673      8.10258285     -5.09878726
 Ti      7.90136460     14.00015542     -5.07435167
 Ti     14.48080143     14.05402072     -5.10816406
 Ti      7.90055760     11.08069982     -5.06893140
 Ti     14.49247153     11.08398312     -5.09432306
 Ti      7.79144382     16.97928002     -5.08718989
 Ti     14.46501303     16.99934982     -5.08067258
 Ti      4.50271475      0.67853286     -4.94553993
 Ti      4.59738169      3.66118026     -4.86025121
 Ti      4.58795066      6.64821928     -4.84268471
 Ti      4.60536881     12.54970432     -4.94445295
 Ti      4.55390161      9.59821891     -4.86271729
 Ti      4.49358231     15.51842562     -4.83720531
 Ti     11.07892972      0.67118858     -4.85049841
 Ti     17.67039963      0.74986841     -4.84503371
 Ti     11.18252030      3.65473495     -4.85592691
 Ti     17.76770073      3.67433079     -4.85125511
 Ti     11.15972404      6.63934225     -4.84267761
 Ti     17.67063633      6.63780116     -4.84905131
 Ti     11.17112152     12.54017942     -4.85760201
 Ti     17.76086193     12.53997692     -4.85494921
 Ti     11.16798488      9.57195295     -4.84076381
 Ti     17.76496603      9.55830793     -4.84740701
 Ti     11.15998408     15.52326962     -4.85603701
 Ti     17.68720513     15.52292102     -4.85539531
  O      4.50839834      0.71926992     -0.34010255
  O      4.51180337      3.65916205     -0.33721896
  O      4.51887021      6.64521145     -0.32875073
  O      4.51161413     12.54452216     -0.34718719
  O      4.51399177      9.60207771     -0.33527885
  O      4.50858683     15.51999133     -0.34330149
  O     11.09212688      0.71909360     -0.33393099
  O     17.67306178      0.71960864     -0.32624871
  O     11.08613898      3.66660444     -0.33859022
  O     17.67187301      3.67579707     -0.33129425
  O     11.08687446      6.64625509     -0.33282806
  O     17.67882754      6.64937818     -0.33545907
  O     11.09791677     12.54805853     -0.32934449
  O     17.68737917     12.54486418     -0.32962540
  O     11.08851999      9.59698890     -0.33086711
  O     17.68149603      9.59505575     -0.33078478
  O     11.10075215     15.51551655     -0.32912311
  O     17.68061647     15.52098124     -0.32755178
  O      2.52847458      2.19707998     -1.67679718
  O      2.52832193      5.15681189     -1.59992168
  O      2.53206906      8.11526864     -1.59912302
  O      2.53200488     14.03278665     -1.67630701
  O      2.53590867     11.07698556     -1.67230927
  O      2.52677125     17.00029427     -1.67740184
  O      9.11406052      2.19884860     -1.67864147
  O     15.66027481      2.20128230     -1.60682690
  O      9.11371744      5.15178411     -1.67959564
  O     15.68312353      5.15606203     -1.67034020
  O      9.11588751      8.11405535     -1.67463941
  O     15.69644398      8.11745240     -1.67484631
  O      9.12073918     14.04147867     -1.59814875
  O     15.69885201     14.03604208     -1.59316166
  O      9.11817370     11.07935990     -1.59758737
  O     15.69852913     11.07306338     -1.59923402
  O      9.11734449     16.99008436     -1.59691019
  O     15.68684695     16.99659036     -1.59685671
  O     -0.10072615      2.20175982     -1.60244580
  O     -0.09579378      5.15240906     -1.67670630
  O     -0.07514011      8.11249668     -1.67802483
  O     -0.07997509     14.03686181     -1.67843142
  O     -0.06251463     11.07923762     -1.67655237
  O     -0.08890155     16.99510939     -1.61109102
  O      6.53071700      2.19032508     -1.67172479
  O     13.06451304      2.19708269     -1.67898259
  O      6.52627547      5.15988572     -1.66892877
  O     13.06317794      5.16288646     -1.67592260
  O      6.53688575      8.12127107     -1.67584601
  O     13.06545909      8.11712948     -1.67680757
  O      6.53388118     14.03021317     -1.67708590
  O     13.11354058     14.03292781     -1.68743175
  O      6.54354296     11.07890128     -1.68159552
  O     13.07787612     11.07697217     -1.68239403
  O      6.51999909     16.98999569     -1.67025951
  O     13.08496487     16.98988190     -1.68200143
  O      4.53786602      0.70758103     -2.98954359
  O      4.54403684      3.67864201     -2.95059834
  O      4.54353763      6.63931244     -2.94590286
  O      4.54931403     12.55001857     -3.00414110
  O      4.54615327      9.59563606     -2.95107735
  O      4.54267882     15.51674688     -2.94921836
  O     11.04506561      0.70543087     -2.94757649
  O     17.62852426      0.71755324     -2.94208397
  O     11.12606359      3.67523189     -2.95208329
  O     17.64228330      3.67077609     -2.95163973
  O     11.04922967      6.64422526     -2.95127756
  O     17.63499851      6.63701585     -2.94918907
  O     11.04627626     12.55632668     -2.94631192
  O     17.63298724     12.55424168     -2.94694517
  O     11.04425365      9.59476593     -2.94705195
  O     17.71067856      9.59785626     -2.94637882
  O     11.11407381     15.51567955     -2.94738607
  O     17.62761844     15.51867240     -2.94770046
  O      1.16730567      0.72032719     -3.64614811
  O      1.24142946      3.67323106     -3.64559693
  O      1.25422791      6.63149921     -3.64836590
  O      1.24573761     12.55074781     -3.65661944
  O      1.24698371      9.58996293     -3.65482874
  O      1.24079256     15.51415465     -3.64850943
  O      7.84755798      0.65822843     -3.65317225
  O     14.42834009      0.70876926     -3.65114366
  O      7.75772666      3.67282632     -3.65992126
  O     14.41503644      3.67239459     -3.65396500
  O      7.84214381      6.64068554     -3.67133771
  O     14.41796467      6.63181367     -3.66446899
  O      7.92675950     12.55284276     -3.66165811
  O     14.51267915     12.55925359     -3.66583031
  O      7.92393007      9.59868971     -3.66747811
  O     14.42720808      9.60368487     -3.66342736
  O      7.85000805     15.50868029     -3.66170648
  O     14.51404225     15.51566398     -3.66595195
  O      5.75671982      2.16324301     -5.01435958
  O      5.75975303      5.15448081     -5.01530183
  O      5.76556015      8.14428322     -5.01539114
  O      5.75653567     14.03557632     -5.01636649
  O      5.78411909     11.08130282     -5.09072135
  O      5.76834411     16.97608362     -5.06744863
  O     12.34626893      2.16631666     -5.01136403
  O     18.92693223      2.16872457     -5.01182269
  O     12.35319463      5.15333855     -5.01211275
  O     18.92479343      5.15702773     -5.01288125
  O     12.38480073      8.10072512     -4.98445473
  O     18.93235633      8.05623231     -5.01259674
  O     12.35286853     14.03080392     -5.00936198
  O     18.92498483     14.03379252     -5.01470270
  O     12.37642473     11.06886562     -4.98555887
  O     18.93427013     11.04978872     -5.01564865
  O     12.37237753     16.98851532     -4.98794386
  O     18.92340113     17.02074082     -5.01352979
  O      3.22044698      2.16860736     -5.01483320
  O      3.22535877      5.15561492     -5.01428870
  O      3.22541749      8.14656077     -5.01556500
  O      3.21913862     14.03265332     -5.01720782
  O      3.22122825     11.05180552     -5.01514675
  O      3.19055941     16.98232112     -4.99293827
  O      9.80662525      2.17046481     -5.01076665
  O     16.39100653      2.17423529     -5.01482192
  O      9.80898175      5.15497252     -5.01507870
  O     16.39253663      5.14959923     -5.01645290
  O      9.91779221      8.13950322     -5.26757440
  O     16.39480123      8.14363750     -5.01513968
  O      9.93210408     14.03336686     -5.19536888
  O     16.50904620     14.03254601     -5.20296988
  O      9.94031990     11.07440600     -5.19705723
  O     16.52457610     11.06721736     -5.19701748
  O      9.89109481     16.97561302     -5.19278317
  O     16.48915131     16.99946280     -5.19553072
  O      1.25088733      0.71851802     -6.18411049
  O      1.24511498      3.66782190     -6.18930110
  O      1.25127594      6.62532430     -6.18717196
  O      1.25087407     12.55127117     -6.19242414
  O      1.24291261      9.58949157     -6.18831295
  O      1.24441005     15.50623474     -6.18118684
  O      7.75313584      0.71934483     -6.18526678
  O     14.41859379      0.72195880     -6.18694327
  O      7.83046563      3.64396538     -6.19141794
  O     14.34234357      3.65447390     -6.19246203
  O      7.75205245      6.62230557     -6.19408800
  O     14.42223371      6.61949175     -6.19834840
  O      7.75339785     12.55076102     -6.19457837
  O     14.33862573     12.56087697     -6.19719842
  O      7.82727799      9.60001139     -6.19093921
  O     14.41597948      9.59571130     -6.19876855
  O      7.75657171     15.49529594     -6.18846092
  O     14.33832771     15.52441085     -6.20041601
 Au     13.07790170      7.41405531      8.09694000
 Au     10.12971131     10.77864322      9.11173178
 Au     13.69106612      4.70658444      7.98912198
 Au     15.61915468      6.59315462      7.71715750
 Au     15.09595006      9.43918081      7.66627926
 Au     10.39903188      8.18101583      8.43335698
 Au     10.92456318      5.74337265      7.52755275
 Au     12.65315932     10.10605467      8.49996517

