439
Energy = -13269.72290917 au
 Ti      1.56872315      0.72721835      4.67671848
 Ti      1.58228011      3.69150613      4.68121330
 Ti      1.58066906      6.63946656      4.66899694
 Ti      1.58844910     12.54736844      4.67834157
 Ti      1.56695805      9.59636244      4.66829546
 Ti      1.61157108     15.49841804      4.67782576
 Ti      7.86793030      0.73238285      4.73428388
 Ti     14.18758272      0.72575626      4.74313232
 Ti      7.88232750      3.69686295      4.77686721
 Ti     14.20932013      3.66479017      4.74769625
 Ti      7.89889598      6.65158625      4.76768773
 Ti     14.24271740      6.65111561      4.73526350
 Ti      7.88021959     12.55187557      4.73427449
 Ti     14.22736509     12.54432859      4.73575515
 Ti      7.88412753      9.60075425      4.78727530
 Ti     14.17289094      9.60347436      4.74242258
 Ti      7.89133692     15.50237150      4.73227748
 Ti     14.22910936     15.49945999      4.73709266
 Ti      4.71671454      2.22497894      5.29560149
 Ti      4.72306109      5.17324852      5.27773087
 Ti      4.70787556      8.11474531      5.19256897
 Ti      4.72576049     14.05743855      5.29360487
 Ti      4.70845340     11.12189153      5.19649680
 Ti      4.72349346     17.00215807      5.30800713
 Ti     11.03024427      2.12504923      5.27309973
 Ti     17.32967233      2.19587030      5.16369089
 Ti     11.02344566      4.92942522      4.80186172
 Ti     17.31208946      5.14772480      5.14294365
 Ti     11.03553627      8.36849975      4.88312748
 Ti     17.32761224      8.11378949      5.17367943
 Ti     11.04757532     14.06208081      5.28855416
 Ti     17.33636911     14.02729601      5.15067892
 Ti     11.03395240     11.16602820      5.29431806
 Ti     17.32471600     11.07067108      5.13840025
 Ti     11.03845561     16.95935005      5.29072757
 Ti     17.32925237     16.97075238      5.13284103
  O      4.72889368      0.71968053      3.75836415
  O      4.72374326      3.69662814      3.75660967
  O      4.71465359      6.62582744      3.70349844
  O      4.71851134     12.53750845      3.73738333
  O      4.72153986      9.60518825      3.68579965
  O      4.66186245     15.50579127      3.75336700
  O     11.03071276      0.71764772      3.76227161
  O     17.25558044      0.72112805      3.65743972
  O     11.03388237      3.61201343      3.61740231
  O     17.18689859      3.69772070      3.65741964
  O     11.02540811      6.63499302      3.76165587
  O     17.18741576      6.62406033      3.65761377
  O     11.02549532     12.53125169      3.75976861
  O     17.18510821     12.52907292      3.63475621
  O     11.02981524      9.67897295      3.67678236
  O     17.25462476      9.59649389      3.65074982
  O     11.02259684     15.51201489      3.75705407
  O     17.18504051     15.50687598      3.65032553
  O      4.73002628      0.76376627      6.38601006
  O      4.73851428      3.70793031      6.38583500
  O      4.73695156      6.68243728      6.31816704
  O      4.72609071      9.60393360      6.31651921
  O      4.72881559     12.53285827      6.32723006
  O      4.72847884     15.51378184      6.38539242
  O     11.03252153      0.70863128      6.39661768
  O     17.41200898      0.71976371      6.23685974
  O     11.02432142      3.69959783      6.18198497
  O     17.41091513      3.69018025      6.23672565
  O     17.34555804      6.62684072      6.23691397
  O     11.03340413     12.59849317      6.39951562
  O     17.41134026     12.53903715      6.22887971
  O     11.03794309      9.59338557      6.23280941
  O     17.41030205      9.59833552      6.23699322
  O     11.03179631     15.50804631      6.39268698
  O     17.41150037     15.49946505      6.23273647
  O      2.76460473      2.20950273      5.12293150
  O      2.76875468      5.18107984      5.12765776
  O      2.76320377      8.11876451      5.11726886
  O      2.75740438     14.01753727      5.19594382
  O      2.76259589     11.03859488      5.12217964
  O      2.76770845     17.00312931      5.12944487
  O      9.06575457      2.20154429      5.12056125
  O     15.35764690      2.20434531      5.19852130
  O      9.13013915      5.19217698      5.04460477
  O     15.30342543      5.13753477      5.27336350
  O      9.12709036      8.10874811      5.12219129
  O     15.33614791      8.12629138      5.20352203
  O      9.07419860     14.02488359      5.12231783
  O     15.36063773     14.01900772      5.20520834
  O      9.07247538     11.10013013      5.12583522
  O     15.35697126     11.03678566      5.19855900
  O      9.06844461     16.99702483      5.12558695
  O     15.35887458     17.00103136      5.20005789
  O      0.39006660      2.21238885      4.96295522
  O      0.38419033      5.17998632      4.96527093
  O      0.38457827      8.10963892      4.96506546
  O      0.38636133     14.02168428      4.89023287
  O      0.39077901     11.09389553      4.96239690
  O      0.39490462     16.94295461      4.96306428
  O      6.68463749      2.21315432      5.12355892
  O     12.98924809      2.20461762      5.11786480
  O      6.68588730      5.19188826      5.04067837
  O     12.93671037      5.19196228      5.10916828
  O      6.68038807      8.11692918      4.96521711
  O     12.94183651      8.09912867      5.04308832
  O      6.68463670     14.02815122      5.12116420
  O     12.98876692     14.02108882      5.04750180
  O      6.68640301     11.09123487      5.10964662
  O     12.99110107     11.09998392      5.11827884
  O      6.68156468     16.95670934      5.12447952
  O     12.99015585     16.94879566      5.11488929
 Ti      1.57673193      2.20210933      1.49476618
 Ti      1.57702977      5.15888352      1.50552784
 Ti      1.58930717      8.11500565      1.47602024
 Ti      1.56044835     14.02184131      1.50122035
 Ti      1.57544184     11.07476807      1.50058386
 Ti      1.57414930     16.96886830      1.50307231
 Ti      7.87842052      2.23384996      1.52489552
 Ti     14.25135419      2.20212799      1.49896450
 Ti      7.88138705      5.17745051      1.53559610
 Ti     14.24378910      5.16593492      1.51044883
 Ti      7.88030175      8.11078246      1.53201127
 Ti     14.25845516      8.11627060      1.49658494
 Ti      7.88494181     14.02139890      1.50551507
 Ti     14.19836716     14.02022971      1.49484007
 Ti      7.88138325     11.05347248      1.53270781
 Ti     14.25500418     11.07101430      1.50925991
 Ti      7.88331231     16.99362295      1.50393558
 Ti     14.22077349     16.97459607      1.51701585
 Ti      4.72292815      0.72920367      1.92861094
 Ti      4.71873068      3.67748914      1.92392342
 Ti      4.72223573      6.62814946      1.88067128
 Ti      4.71739529     12.55701914      1.88971355
 Ti      4.72327623      9.60276123      1.86504910
 Ti      4.70929921     15.50633931      1.91430169
 Ti     11.04419371      0.73089258      1.92427740
 Ti     17.39427834      0.72012618      1.76522743
 Ti     11.07976031      3.66604520      1.59877388
 Ti     17.35760339      3.68411776      1.76850392
 Ti     11.04451321      6.64271934      1.84994784
 Ti     17.38660693      6.63607456      1.77903875
 Ti     11.03351231     12.54933419      1.93295318
 Ti     17.34639531     12.55036655      1.76677669
 Ti     11.09403563      9.61478159      1.63229575
 Ti     17.40276877      9.59499363      1.77650391
 Ti     11.04881320     15.51027520      1.91321145
 Ti     17.33634496     15.49815982      1.75925354
  O      1.65061849      0.71926587      2.89178398
  O      1.65391946      3.69078890      2.89743921
  O      1.65573720      6.62527998      2.88459193
  O      1.65824634     12.53783057      2.89086490
  O      1.65494246      9.60098812      2.88612254
  O      1.65990376     15.50501537      2.88908619
  O      7.87747834      0.72144455      2.95498150
  O     14.25793394      0.77163625      2.95819655
  O      7.88051533      3.69417039      2.96718858
  O     14.25806956      3.69791494      2.96114747
  O      7.88567587      6.62839525      2.95356943
  O     14.26336526      6.62308104      2.95606126
  O      7.88059076     12.53427595      2.95120049
  O     14.26117868     12.52700155      2.95165595
  O      7.88293962      9.60462163      2.97037434
  O     14.25814677      9.60192676      2.95828287
  O      7.87832525     15.51002153      2.95336715
  O     14.26243770     15.51125601      2.95452019
  O      5.96275687      2.20599021      1.68378147
  O      5.96158666      5.14160844      1.67608299
  O      5.96786043      8.11151601      1.67512129
  O      5.96142236     14.02778523      1.68308099
  O      5.96399083     11.08995128      1.67394215
  O      5.95847677     16.98125756      1.68342390
  O     12.29262028      2.20708637      1.68785550
  O     18.62639363      2.21267382      1.83579372
  O     12.29082474      5.17726156      1.75058345
  O     18.61922593      5.14339458      1.83451052
  O     12.29439029      8.11390629      1.75729997
  O     18.64589054      8.10846818      1.83616423
  O     12.28729672     14.02053944      1.76220881
  O     18.61024137     14.02170259      1.83442299
  O     12.29056292     11.08612734      1.69351174
  O     18.62391048     11.09172466      1.83221531
  O     12.28999442     16.99571914      1.76235226
  O     18.61846618     16.94898099      1.83397073
  O      3.46788660      2.20426106      1.68697942
  O      3.47078071      5.13652385      1.68012167
  O      3.46987487      8.11218947      1.68029529
  O      3.46687770     14.02271247      1.68153772
  O      3.47012774     11.09141584      1.67904328
  O      3.46961763     16.99486107      1.68436722
  O      9.79006761      2.21281392      1.68107417
  O     16.13905149      2.20308313      1.52872482
  O      9.80091390      5.16330057      1.67918946
  O     16.13856959      5.18125981      1.52579961
  O      9.79871288      8.11903624      1.68430098
  O     16.14395374      8.11451133      1.53098899
  O      9.78682154     14.02227998      1.69024390
  O     16.10798573     14.02010764      1.52923163
  O      9.79734213     11.04494446      1.68171906
  O     16.14018510     11.03919124      1.52541280
  O      9.78737998     16.99494364      1.68883487
  O     16.12940637     16.99825680      1.53585299
  O      1.42416940      0.72060733      0.31658830
  O      1.42538712      3.68400935      0.31637063
  O      1.42317315      6.62332192      0.31803503
  O      1.42996757     12.54568456      0.30973893
  O      1.42539967      9.60440338      0.31425015
  O      1.42961983     15.50308618      0.31287499
  O      7.87126608      0.75934935      0.38295247
  O     14.17801830      0.72309595      0.38947216
  O      7.87736679      3.69614492      0.37795505
  O     14.17884503      3.69714048      0.38604139
  O      7.87680418      6.63265392      0.37818935
  O     14.17953653      6.63351058      0.38336299
  O      7.87355110     12.53436620      0.38504724
  O     14.17934598     12.53585425      0.38530667
  O      7.87456728      9.59168432      0.38322492
  O     14.17692061      9.59194632      0.38475534
  O      7.87019751     15.50877899      0.38554911
  O     14.17558838     15.51106953      0.38944580
 Ti      1.21202878      0.71942337     -1.75752175
 Ti      1.21975963      3.67805472     -1.74110369
 Ti      1.22111716      6.63676035     -1.75533981
 Ti      1.22849042     12.55412208     -1.76041713
 Ti      1.22816291      9.59460746     -1.76515972
 Ti      1.22709747     15.51555674     -1.75892704
 Ti      7.81592619      0.70815691     -1.75287415
 Ti     14.38158119      0.71494161     -1.74474248
 Ti      7.80441092      3.67854378     -1.75257935
 Ti     14.37667801      3.68492053     -1.74500898
 Ti      7.81736303      6.63892084     -1.77625323
 Ti     14.39331679      6.64344134     -1.77549943
 Ti      7.83696388     12.55658465     -1.73913837
 Ti     14.41282109     12.55049553     -1.76073407
 Ti      7.83299588      9.59648136     -1.75768511
 Ti     14.39561168      9.59560913     -1.76648022
 Ti      7.81589198     15.51260085     -1.75790650
 Ti     14.40934091     15.51010728     -1.75630241
 Ti      4.52199207      2.19050397     -1.59161227
 Ti      4.52373824      5.15426536     -1.55230957
 Ti      4.52843688      8.11879900     -1.54955447
 Ti      4.52242957     14.02788300     -1.58772473
 Ti      4.53079138     11.07968169     -1.59126437
 Ti      4.51358792     17.00203362     -1.57907569
 Ti     11.08823270      2.18916184     -1.58733264
 Ti     17.65604673      2.19783817     -1.55248141
 Ti     11.08432363      5.15913192     -1.58883355
 Ti     17.66893902      5.16127300     -1.56595475
 Ti     11.08575948      8.12733818     -1.56890861
 Ti     17.68745030      8.12028738     -1.56060303
 Ti     11.11629116     14.03082356     -1.56258642
 Ti     17.68818458     14.03100085     -1.55812337
 Ti     11.09881007     11.08605676     -1.56207204
 Ti     17.69462097     11.07650451     -1.55489374
 Ti     11.10410228     16.98111534     -1.56242844
 Ti     17.67622831     16.99175535     -1.55176830
 Ti      1.30369970      2.19477698     -5.04772806
 Ti      1.31326858      5.12839073     -5.06048784
 Ti      1.30359635      8.09782824     -5.06656126
 Ti      1.29820627     14.00489532     -5.04681690
 Ti      1.30725828     11.07251972     -5.06745828
 Ti      1.18973891     16.97985252     -5.06112726
 Ti      7.88664190      2.17917051     -5.02767245
 Ti     14.46226053      2.18925818     -5.03217217
 Ti      7.90023798      5.11224747     -5.08518336
 Ti     14.48015323      5.11228181     -5.08395591
 Ti      7.89220098      8.10050586     -5.10119657
 Ti     14.47471673      8.10258285     -5.09878726
 Ti      7.90136460     14.00015542     -5.07435167
 Ti     14.48080143     14.05402072     -5.10816406
 Ti      7.90055760     11.08069982     -5.06893140
 Ti     14.49247153     11.08398312     -5.09432306
 Ti      7.79144382     16.97928002     -5.08718989
 Ti     14.46501303     16.99934982     -5.08067258
 Ti      4.50271475      0.67853286     -4.94553993
 Ti      4.59738169      3.66118026     -4.86025121
 Ti      4.58795066      6.64821928     -4.84268471
 Ti      4.60536881     12.54970432     -4.94445295
 Ti      4.55390161      9.59821891     -4.86271729
 Ti      4.49358231     15.51842562     -4.83720531
 Ti     11.07892972      0.67118858     -4.85049841
 Ti     17.67039963      0.74986841     -4.84503371
 Ti     11.18252030      3.65473495     -4.85592691
 Ti     17.76770073      3.67433079     -4.85125511
 Ti     11.15972404      6.63934225     -4.84267761
 Ti     17.67063633      6.63780116     -4.84905131
 Ti     11.17112152     12.54017942     -4.85760201
 Ti     17.76086193     12.53997692     -4.85494921
 Ti     11.16798488      9.57195295     -4.84076381
 Ti     17.76496603      9.55830793     -4.84740701
 Ti     11.15998408     15.52326962     -4.85603701
 Ti     17.68720513     15.52292102     -4.85539531
  O      4.50839834      0.71926992     -0.34010255
  O      4.51180337      3.65916205     -0.33721896
  O      4.51887021      6.64521145     -0.32875073
  O      4.51161413     12.54452216     -0.34718719
  O      4.51399177      9.60207771     -0.33527885
  O      4.50858683     15.51999133     -0.34330149
  O     11.09212688      0.71909360     -0.33393099
  O     17.67306178      0.71960864     -0.32624871
  O     11.08613898      3.66660444     -0.33859022
  O     17.67187301      3.67579707     -0.33129425
  O     11.08687446      6.64625509     -0.33282806
  O     17.67882754      6.64937818     -0.33545907
  O     11.09791677     12.54805853     -0.32934449
  O     17.68737917     12.54486418     -0.32962540
  O     11.08851999      9.59698890     -0.33086711
  O     17.68149603      9.59505575     -0.33078478
  O     11.10075215     15.51551655     -0.32912311
  O     17.68061647     15.52098124     -0.32755178
  O      2.52847458      2.19707998     -1.67679718
  O      2.52832193      5.15681189     -1.59992168
  O      2.53206906      8.11526864     -1.59912302
  O      2.53200488     14.03278665     -1.67630701
  O      2.53590867     11.07698556     -1.67230927
  O      2.52677125     17.00029427     -1.67740184
  O      9.11406052      2.19884860     -1.67864147
  O     15.66027481      2.20128230     -1.60682690
  O      9.11371744      5.15178411     -1.67959564
  O     15.68312353      5.15606203     -1.67034020
  O      9.11588751      8.11405535     -1.67463941
  O     15.69644398      8.11745240     -1.67484631
  O      9.12073918     14.04147867     -1.59814875
  O     15.69885201     14.03604208     -1.59316166
  O      9.11817370     11.07935990     -1.59758737
  O     15.69852913     11.07306338     -1.59923402
  O      9.11734449     16.99008436     -1.59691019
  O     15.68684695     16.99659036     -1.59685671
  O     -0.10072615      2.20175982     -1.60244580
  O     -0.09579378      5.15240906     -1.67670630
  O     -0.07514011      8.11249668     -1.67802483
  O     -0.07997509     14.03686181     -1.67843142
  O     -0.06251463     11.07923762     -1.67655237
  O     -0.08890155     16.99510939     -1.61109102
  O      6.53071700      2.19032508     -1.67172479
  O     13.06451304      2.19708269     -1.67898259
  O      6.52627547      5.15988572     -1.66892877
  O     13.06317794      5.16288646     -1.67592260
  O      6.53688575      8.12127107     -1.67584601
  O     13.06545909      8.11712948     -1.67680757
  O      6.53388118     14.03021317     -1.67708590
  O     13.11354058     14.03292781     -1.68743175
  O      6.54354296     11.07890128     -1.68159552
  O     13.07787612     11.07697217     -1.68239403
  O      6.51999909     16.98999569     -1.67025951
  O     13.08496487     16.98988190     -1.68200143
  O      4.53786602      0.70758103     -2.98954359
  O      4.54403684      3.67864201     -2.95059834
  O      4.54353763      6.63931244     -2.94590286
  O      4.54931403     12.55001857     -3.00414110
  O      4.54615327      9.59563606     -2.95107735
  O      4.54267882     15.51674688     -2.94921836
  O     11.04506561      0.70543087     -2.94757649
  O     17.62852426      0.71755324     -2.94208397
  O     11.12606359      3.67523189     -2.95208329
  O     17.64228330      3.67077609     -2.95163973
  O     11.04922967      6.64422526     -2.95127756
  O     17.63499851      6.63701585     -2.94918907
  O     11.04627626     12.55632668     -2.94631192
  O     17.63298724     12.55424168     -2.94694517
  O     11.04425365      9.59476593     -2.94705195
  O     17.71067856      9.59785626     -2.94637882
  O     11.11407381     15.51567955     -2.94738607
  O     17.62761844     15.51867240     -2.94770046
  O      1.16730567      0.72032719     -3.64614811
  O      1.24142946      3.67323106     -3.64559693
  O      1.25422791      6.63149921     -3.64836590
  O      1.24573761     12.55074781     -3.65661944
  O      1.24698371      9.58996293     -3.65482874
  O      1.24079256     15.51415465     -3.64850943
  O      7.84755798      0.65822843     -3.65317225
  O     14.42834009      0.70876926     -3.65114366
  O      7.75772666      3.67282632     -3.65992126
  O     14.41503644      3.67239459     -3.65396500
  O      7.84214381      6.64068554     -3.67133771
  O     14.41796467      6.63181367     -3.66446899
  O      7.92675950     12.55284276     -3.66165811
  O     14.51267915     12.55925359     -3.66583031
  O      7.92393007      9.59868971     -3.66747811
  O     14.42720808      9.60368487     -3.66342736
  O      7.85000805     15.50868029     -3.66170648
  O     14.51404225     15.51566398     -3.66595195
  O      5.75671982      2.16324301     -5.01435958
  O      5.75975303      5.15448081     -5.01530183
  O      5.76556015      8.14428322     -5.01539114
  O      5.75653567     14.03557632     -5.01636649
  O      5.78411909     11.08130282     -5.09072135
  O      5.76834411     16.97608362     -5.06744863
  O     12.34626893      2.16631666     -5.01136403
  O     18.92693223      2.16872457     -5.01182269
  O     12.35319463      5.15333855     -5.01211275
  O     18.92479343      5.15702773     -5.01288125
  O     12.38480073      8.10072512     -4.98445473
  O     18.93235633      8.05623231     -5.01259674
  O     12.35286853     14.03080392     -5.00936198
  O     18.92498483     14.03379252     -5.01470270
  O     12.37642473     11.06886562     -4.98555887
  O     18.93427013     11.04978872     -5.01564865
  O     12.37237753     16.98851532     -4.98794386
  O     18.92340113     17.02074082     -5.01352979
  O      3.22044698      2.16860736     -5.01483320
  O      3.22535877      5.15561492     -5.01428870
  O      3.22541749      8.14656077     -5.01556500
  O      3.21913862     14.03265332     -5.01720782
  O      3.22122825     11.05180552     -5.01514675
  O      3.19055941     16.98232112     -4.99293827
  O      9.80662525      2.17046481     -5.01076665
  O     16.39100653      2.17423529     -5.01482192
  O      9.80898175      5.15497252     -5.01507870
  O     16.39253663      5.14959923     -5.01645290
  O      9.91779221      8.13950322     -5.26757440
  O     16.39480123      8.14363750     -5.01513968
  O      9.93210408     14.03336686     -5.19536888
  O     16.50904620     14.03254601     -5.20296988
  O      9.94031990     11.07440600     -5.19705723
  O     16.52457610     11.06721736     -5.19701748
  O      9.89109481     16.97561302     -5.19278317
  O     16.48915131     16.99946280     -5.19553072
  O      1.25088733      0.71851802     -6.18411049
  O      1.24511498      3.66782190     -6.18930110
  O      1.25127594      6.62532430     -6.18717196
  O      1.25087407     12.55127117     -6.19242414
  O      1.24291261      9.58949157     -6.18831295
  O      1.24441005     15.50623474     -6.18118684
  O      7.75313584      0.71934483     -6.18526678
  O     14.41859379      0.72195880     -6.18694327
  O      7.83046563      3.64396538     -6.19141794
  O     14.34234357      3.65447390     -6.19246203
  O      7.75205245      6.62230557     -6.19408800
  O     14.42223371      6.61949175     -6.19834840
  O      7.75339785     12.55076102     -6.19457837
  O     14.33862573     12.56087697     -6.19719842
  O      7.82727799      9.60001139     -6.19093921
  O     14.41597948      9.59571130     -6.19876855
  O      7.75657171     15.49529594     -6.18846092
  O     14.33832771     15.52441085     -6.20041601
 Au     11.24871664      7.93299168      8.76849732
 Au      8.99540167      9.55271865      8.49930753
 Au     11.31429856     10.52986510      9.40076068
 Au      7.43338457      4.41396724      7.83380241
 Au      9.85051271      5.58208955      8.10518222
 Au      7.62825872      7.13846304      7.91198101
 Au     12.37273761      6.06767218      7.29643382
 Au      6.49946861      9.55195144      7.72407243
