#B3LYP/6-31+G(d) OPT FREQ

439, Energy = -13269.72258844 au

0 1
 Ti      1.57114666      0.72719685      4.67727070
 Ti      1.57654875      3.69033016      4.68429587
 Ti      1.57303869      6.64073965      4.67002538
 Ti      1.59580367     12.54567374      4.67932530
 Ti      1.56401310      9.59516852      4.66985442
 Ti      1.60526911     15.49826099      4.67740482
 Ti      7.86691101      0.72687680      4.73517801
 Ti     14.19333984      0.72355242      4.74409012
 Ti      7.88893602      3.68429751      4.74978253
 Ti     14.19480863      3.67093019      4.74506484
 Ti      7.88018157      6.62779779      4.76523769
 Ti     14.18723117      6.62377601      4.75216014
 Ti      7.87908352     12.54957921      4.73380933
 Ti     14.23234970     12.54045681      4.73556094
 Ti      7.90094985      9.59381756      4.80681576
 Ti     14.16826320      9.58849177      4.75651372
 Ti      7.89355123     15.49867951      4.73422429
 Ti     14.22411277     15.49745992      4.73575413
 Ti      4.72016192      2.19083260      5.28911103
 Ti      4.71507561      5.13455994      5.22081521
 Ti      4.71193279      8.15440310      5.18101683
 Ti      4.72532148     14.03706540      5.31661806
 Ti      4.72118000     11.11106302      5.25923374
 Ti      4.72231575     16.97462383      5.29413419
 Ti     11.03234504      2.13902476      5.29257390
 Ti     17.32474020      2.19445954      5.16507039
 Ti     11.03150652      4.94141581      4.78582373
 Ti     17.29934319      5.14620839      5.14405413
 Ti     11.03121824      8.33610626      4.87957958
 Ti     17.30777501      8.11063081      5.16853783
 Ti     11.04854781     14.06989187      5.28978594
 Ti     17.33595976     14.02429361      5.15363062
 Ti     11.04193322     11.18027240      5.26734963
 Ti     17.32553803     11.06759792      5.13873376
 Ti     11.04015901     16.96533495      5.28818429
 Ti     17.32793183     16.96831003      5.13340269
  O      4.72927532      0.71929392      3.75458108
  O      4.72387432      3.69675968      3.74701573
  O      4.72118868      6.61992801      3.69226789
  O      4.72178700     12.53162376      3.75767111
  O      4.72126445      9.60204640      3.69358769
  O      4.66053290     15.50250716      3.75595553
  O     11.03101669      0.71575965      3.76630681
  O     17.25579717      0.72057646      3.65685702
  O     11.02923190      3.55548638      3.67035420
  O     17.18702080      3.69806294      3.65645212
  O     11.02602932      6.62134724      3.75105057
  O     17.18955711      6.62491496      3.65572091
  O     11.02539249     12.53005772      3.75544690
  O     17.18440847     12.52859052      3.64266704
  O     11.03214417      9.62717273      3.65339155
  O     17.25414772      9.59592301      3.64682390
  O     11.02277370     15.51099974      3.75770888
  O     17.18591124     15.50662000      3.65131821
  O      4.72962198      0.72600622      6.38029078
  O      4.72701374      3.70096723      6.32968572
  O      4.79705962      6.67677907      6.31936646
  O      4.80745803      9.58781492      6.32370013
  O      4.72958582     12.53221837      6.38331724
  O      4.72819217     15.50697259      6.38965830
  O     11.03209488      0.70866937      6.39906308
  O     17.41219767      0.71887271      6.23692475
  O     11.03184895      3.71182138      6.24234477
  O     17.41133159      3.69027367      6.23660548
  O     17.34339046      6.62765257      6.23542417
  O     11.03311827     12.59721648      6.39458701
  O     17.41052597     12.53568821      6.23086999
  O     11.03300326      9.59886431      6.17782719
  O     17.40884272      9.59529237      6.23476234
  O     11.03191500     15.51003568      6.39323008
  O     17.41213152     15.49845660      6.23357918
  O      2.76419146      2.20756466      5.12243361
  O      2.76743052      5.18669764      5.12876590
  O      2.76927175      8.11710234      5.12070758
  O      2.75899171     14.01659819      5.19686588
  O      2.76992140     11.03564789      5.12729650
  O      2.76578028     17.00068950      5.12777099
  O      9.06864875      2.19622208      5.12645487
  O     15.35669056      2.20324410      5.19668048
  O      9.13147797      5.18517448      5.04068462
  O     15.29738939      5.13232479      5.27623338
  O      9.12377839      8.05896557      5.12007553
  O     15.31404407      8.12034420      5.20336246
  O      9.07415770     14.02351699      5.12316612
  O     15.36050922     14.01846097      5.20552851
  O      9.07528870     11.10026763      5.12160246
  O     15.35423453     11.02852113      5.19835925
  O      9.06992033     16.99411222      5.12648975
  O     15.35879812     16.99834811      5.20156336
  O      0.38930987      2.21207160      4.96290351
  O      0.38209062      5.17984344      4.96556981
  O      0.38285577      8.11071147      4.96587503
  O      0.38716949     14.01923865      4.89076954
  O      0.39293727     11.09348450      4.96276343
  O      0.39400914     16.94275695      4.96313424
  O      6.68666037      2.20800669      5.12276829
  O     12.98777566      2.20132183      5.11977472
  O      6.69493749      5.13062499      5.09611912
  O     12.92748671      5.18199102      5.03892445
  O      6.68591783      8.11340489      4.95989533
  O     12.92663721      8.04801246      5.11720525
  O      6.68283607     14.02616967      5.12237570
  O     12.98890277     14.01919075      5.04759661
  O      6.68925182     11.09073472      5.10942119
  O     12.99078677     11.09820467      5.11770796
  O      6.68420548     16.94952820      5.12287154
  O     12.99004987     16.94748661      5.11668151
 Ti      1.57530861      2.20199388      1.49648456
 Ti      1.57578917      5.15877404      1.50663747
 Ti      1.58837522      8.11455751      1.47722429
 Ti      1.56078506     14.02150256      1.50039690
 Ti      1.57543509     11.07433840      1.50093090
 Ti      1.57307404     16.96950579      1.50310627
 Ti      7.87749038      2.21518023      1.51077108
 Ti     14.25217861      2.20384172      1.50192803
 Ti      7.87971281      5.17361373      1.52511524
 Ti     14.24503231      5.16652855      1.51663666
 Ti      7.88239587      8.11418030      1.54079702
 Ti     14.26014802      8.11178153      1.50779279
 Ti      7.88149890     14.01211544      1.50168555
 Ti     14.20000954     14.02037828      1.49406057
 Ti      7.88208036     11.04463919      1.54065938
 Ti     14.25370564     11.06696449      1.50985696
 Ti      7.88268835     16.97338852      1.51567940
 Ti     14.22477627     16.97523279      1.51500080
 Ti      4.72613109      0.72148155      1.92283044
 Ti      4.71636908      3.67413151      1.90538366
 Ti      4.72354082      6.62787825      1.87543494
 Ti      4.71832187     12.55305482      1.91571479
 Ti      4.72241865      9.60231978      1.86446142
 Ti      4.70248197     15.49924416      1.91658364
 Ti     11.04720628      0.72011907      1.93181325
 Ti     17.39453152      0.71935351      1.76618584
 Ti     11.07211740      3.64534012      1.60278996
 Ti     17.35687095      3.68391436      1.76983520
 Ti     11.04945651      6.62848918      1.82837200
 Ti     17.38639316      6.63573216      1.78060198
 Ti     11.03347973     12.54805592      1.92263996
 Ti     17.34662829     12.54956343      1.77016010
 Ti     11.09458685      9.60909758      1.63946050
 Ti     17.40235801      9.59487172      1.77368702
 Ti     11.04881735     15.50640970      1.91293268
 Ti     17.33721055     15.49726704      1.76018423
  O      1.65081331      0.71946525      2.89171933
  O      1.65439302      3.69052359      2.89986618
  O      1.65601968      6.62517864      2.88514791
  O      1.65884446     12.53699495      2.89179049
  O      1.65460681      9.60059309      2.88742503
  O      1.65962153     15.50485469      2.88877897
  O      7.87596171      0.72007780      2.95463369
  O     14.25835536      0.72613093      2.95781339
  O      7.88005053      3.68883452      2.95776901
  O     14.26120804      3.69122994      2.95847382
  O      7.88187513      6.61993113      2.95508880
  O     14.26088964      6.62318308      2.96093724
  O      7.88034235     12.53348506      2.95095884
  O     14.26161866     12.52603135      2.95258663
  O      7.88379244      9.60164252      2.97070842
  O     14.25373483      9.59711923      2.96655739
  O      7.87881259     15.50646578      2.95433167
  O     14.26244847     15.50846448      2.95370830
  O      5.96548768      2.20338245      1.68192090
  O      5.96401382      5.13517867      1.67394005
  O      5.96823077      8.11214278      1.67467508
  O      5.95864346     14.02494460      1.68485834
  O      5.96161429     11.08849856      1.67605836
  O      5.95392047     16.95715416      1.68444798
  O     12.29312435      2.20177162      1.69092214
  O     18.62695091      2.21255635      1.83557972
  O     12.28828721      5.13465378      1.75575916
  O     18.61930943      5.14225748      1.83448180
  O     12.29388611      8.10591978      1.75451703
  O     18.64645483      8.10839839      1.83576540
  O     12.28761453     14.01916857      1.76168079
  O     18.61090881     14.02058847      1.83486016
  O     12.29028272     11.08318053      1.69533264
  O     18.62427451     11.09204456      1.83270900
  O     12.28936320     16.99070866      1.76123905
  O     18.61971042     16.94874080      1.83441109
  O      3.46939292      2.20159033      1.68688013
  O      3.47072272      5.13417123      1.67921598
  O      3.47028508      8.11247322      1.67996068
  O      3.46588717     14.01862613      1.68228249
  O      3.47089429     11.09047393      1.68078436
  O      3.46890648     16.99587120      1.68424138
  O      9.78496585      2.20544735      1.68112024
  O     16.13840062      2.20132592      1.53045618
  O      9.80231542      5.13618946      1.68367230
  O     16.13899834      5.18003469      1.52581520
  O      9.80119534      8.10835511      1.68198726
  O     16.14456216      8.11414160      1.52999518
  O      9.78625811     14.02083325      1.68978818
  O     16.11168860     14.01907208      1.52939402
  O      9.79807262     11.04320196      1.68218174
  O     16.14017057     11.03954825      1.52628654
  O      9.78859500     16.99041642      1.69071928
  O     16.13322437     16.99676796      1.53232421
  O      1.42428409      0.72108724      0.31657541
  O      1.42572078      3.68357342      0.31686158
  O      1.42353853      6.62307028      0.31839090
  O      1.42987099     12.54416515      0.30991893
  O      1.42566783      9.60424067      0.31458890
  O      1.42992288     15.50276363      0.31288929
  O      7.87004534      0.72779449      0.38333297
  O     14.17805719      0.72388216      0.38963148
  O      7.87681190      3.69022571      0.37087793
  O     14.18025909      3.69424903      0.38753177
  O      7.87825542      6.63100309      0.37996685
  O     14.17786094      6.63027800      0.38713128
  O      7.87345181     12.53028699      0.38579581
  O     14.17952377     12.53364938      0.38661916
  O      7.87487536      9.58894902      0.38418070
  O     14.17677139      9.58828579      0.38858848
  O      7.87019670     15.50433353      0.38434072
  O     14.17590804     15.50781515      0.38799430
 Ti      1.21202878      0.71942337     -1.75752175
 Ti      1.21975963      3.67805472     -1.74110369
 Ti      1.22111716      6.63676035     -1.75533981
 Ti      1.22849042     12.55412208     -1.76041713
 Ti      1.22816291      9.59460746     -1.76515972
 Ti      1.22709747     15.51555674     -1.75892704
 Ti      7.81592619      0.70815691     -1.75287415
 Ti     14.38158119      0.71494161     -1.74474248
 Ti      7.80441092      3.67854378     -1.75257935
 Ti     14.37667801      3.68492053     -1.74500898
 Ti      7.81736303      6.63892084     -1.77625323
 Ti     14.39331679      6.64344134     -1.77549943
 Ti      7.83696388     12.55658465     -1.73913837
 Ti     14.41282109     12.55049553     -1.76073407
 Ti      7.83299588      9.59648136     -1.75768511
 Ti     14.39561168      9.59560913     -1.76648022
 Ti      7.81589198     15.51260085     -1.75790650
 Ti     14.40934091     15.51010728     -1.75630241
 Ti      4.52199207      2.19050397     -1.59161227
 Ti      4.52373824      5.15426536     -1.55230957
 Ti      4.52843688      8.11879900     -1.54955447
 Ti      4.52242957     14.02788300     -1.58772473
 Ti      4.53079138     11.07968169     -1.59126437
 Ti      4.51358792     17.00203362     -1.57907569
 Ti     11.08823270      2.18916184     -1.58733264
 Ti     17.65604673      2.19783817     -1.55248141
 Ti     11.08432363      5.15913192     -1.58883355
 Ti     17.66893902      5.16127300     -1.56595475
 Ti     11.08575948      8.12733818     -1.56890861
 Ti     17.68745030      8.12028738     -1.56060303
 Ti     11.11629116     14.03082356     -1.56258642
 Ti     17.68818458     14.03100085     -1.55812337
 Ti     11.09881007     11.08605676     -1.56207204
 Ti     17.69462097     11.07650451     -1.55489374
 Ti     11.10410228     16.98111534     -1.56242844
 Ti     17.67622831     16.99175535     -1.55176830
 Ti      1.30369970      2.19477698     -5.04772806
 Ti      1.31326858      5.12839073     -5.06048784
 Ti      1.30359635      8.09782824     -5.06656126
 Ti      1.29820627     14.00489532     -5.04681690
 Ti      1.30725828     11.07251972     -5.06745828
 Ti      1.18973891     16.97985252     -5.06112726
 Ti      7.88664190      2.17917051     -5.02767245
 Ti     14.46226053      2.18925818     -5.03217217
 Ti      7.90023798      5.11224747     -5.08518336
 Ti     14.48015323      5.11228181     -5.08395591
 Ti      7.89220098      8.10050586     -5.10119657
 Ti     14.47471673      8.10258285     -5.09878726
 Ti      7.90136460     14.00015542     -5.07435167
 Ti     14.48080143     14.05402072     -5.10816406
 Ti      7.90055760     11.08069982     -5.06893140
 Ti     14.49247153     11.08398312     -5.09432306
 Ti      7.79144382     16.97928002     -5.08718989
 Ti     14.46501303     16.99934982     -5.08067258
 Ti      4.50271475      0.67853286     -4.94553993
 Ti      4.59738169      3.66118026     -4.86025121
 Ti      4.58795066      6.64821928     -4.84268471
 Ti      4.60536881     12.54970432     -4.94445295
 Ti      4.55390161      9.59821891     -4.86271729
 Ti      4.49358231     15.51842562     -4.83720531
 Ti     11.07892972      0.67118858     -4.85049841
 Ti     17.67039963      0.74986841     -4.84503371
 Ti     11.18252030      3.65473495     -4.85592691
 Ti     17.76770073      3.67433079     -4.85125511
 Ti     11.15972404      6.63934225     -4.84267761
 Ti     17.67063633      6.63780116     -4.84905131
 Ti     11.17112152     12.54017942     -4.85760201
 Ti     17.76086193     12.53997692     -4.85494921
 Ti     11.16798488      9.57195295     -4.84076381
 Ti     17.76496603      9.55830793     -4.84740701
 Ti     11.15998408     15.52326962     -4.85603701
 Ti     17.68720513     15.52292102     -4.85539531
  O      4.50839834      0.71926992     -0.34010255
  O      4.51180337      3.65916205     -0.33721896
  O      4.51887021      6.64521145     -0.32875073
  O      4.51161413     12.54452216     -0.34718719
  O      4.51399177      9.60207771     -0.33527885
  O      4.50858683     15.51999133     -0.34330149
  O     11.09212688      0.71909360     -0.33393099
  O     17.67306178      0.71960864     -0.32624871
  O     11.08613898      3.66660444     -0.33859022
  O     17.67187301      3.67579707     -0.33129425
  O     11.08687446      6.64625509     -0.33282806
  O     17.67882754      6.64937818     -0.33545907
  O     11.09791677     12.54805853     -0.32934449
  O     17.68737917     12.54486418     -0.32962540
  O     11.08851999      9.59698890     -0.33086711
  O     17.68149603      9.59505575     -0.33078478
  O     11.10075215     15.51551655     -0.32912311
  O     17.68061647     15.52098124     -0.32755178
  O      2.52847458      2.19707998     -1.67679718
  O      2.52832193      5.15681189     -1.59992168
  O      2.53206906      8.11526864     -1.59912302
  O      2.53200488     14.03278665     -1.67630701
  O      2.53590867     11.07698556     -1.67230927
  O      2.52677125     17.00029427     -1.67740184
  O      9.11406052      2.19884860     -1.67864147
  O     15.66027481      2.20128230     -1.60682690
  O      9.11371744      5.15178411     -1.67959564
  O     15.68312353      5.15606203     -1.67034020
  O      9.11588751      8.11405535     -1.67463941
  O     15.69644398      8.11745240     -1.67484631
  O      9.12073918     14.04147867     -1.59814875
  O     15.69885201     14.03604208     -1.59316166
  O      9.11817370     11.07935990     -1.59758737
  O     15.69852913     11.07306338     -1.59923402
  O      9.11734449     16.99008436     -1.59691019
  O     15.68684695     16.99659036     -1.59685671
  O     -0.10072615      2.20175982     -1.60244580
  O     -0.09579378      5.15240906     -1.67670630
  O     -0.07514011      8.11249668     -1.67802483
  O     -0.07997509     14.03686181     -1.67843142
  O     -0.06251463     11.07923762     -1.67655237
  O     -0.08890155     16.99510939     -1.61109102
  O      6.53071700      2.19032508     -1.67172479
  O     13.06451304      2.19708269     -1.67898259
  O      6.52627547      5.15988572     -1.66892877
  O     13.06317794      5.16288646     -1.67592260
  O      6.53688575      8.12127107     -1.67584601
  O     13.06545909      8.11712948     -1.67680757
  O      6.53388118     14.03021317     -1.67708590
  O     13.11354058     14.03292781     -1.68743175
  O      6.54354296     11.07890128     -1.68159552
  O     13.07787612     11.07697217     -1.68239403
  O      6.51999909     16.98999569     -1.67025951
  O     13.08496487     16.98988190     -1.68200143
  O      4.53786602      0.70758103     -2.98954359
  O      4.54403684      3.67864201     -2.95059834
  O      4.54353763      6.63931244     -2.94590286
  O      4.54931403     12.55001857     -3.00414110
  O      4.54615327      9.59563606     -2.95107735
  O      4.54267882     15.51674688     -2.94921836
  O     11.04506561      0.70543087     -2.94757649
  O     17.62852426      0.71755324     -2.94208397
  O     11.12606359      3.67523189     -2.95208329
  O     17.64228330      3.67077609     -2.95163973
  O     11.04922967      6.64422526     -2.95127756
  O     17.63499851      6.63701585     -2.94918907
  O     11.04627626     12.55632668     -2.94631192
  O     17.63298724     12.55424168     -2.94694517
  O     11.04425365      9.59476593     -2.94705195
  O     17.71067856      9.59785626     -2.94637882
  O     11.11407381     15.51567955     -2.94738607
  O     17.62761844     15.51867240     -2.94770046
  O      1.16730567      0.72032719     -3.64614811
  O      1.24142946      3.67323106     -3.64559693
  O      1.25422791      6.63149921     -3.64836590
  O      1.24573761     12.55074781     -3.65661944
  O      1.24698371      9.58996293     -3.65482874
  O      1.24079256     15.51415465     -3.64850943
  O      7.84755798      0.65822843     -3.65317225
  O     14.42834009      0.70876926     -3.65114366
  O      7.75772666      3.67282632     -3.65992126
  O     14.41503644      3.67239459     -3.65396500
  O      7.84214381      6.64068554     -3.67133771
  O     14.41796467      6.63181367     -3.66446899
  O      7.92675950     12.55284276     -3.66165811
  O     14.51267915     12.55925359     -3.66583031
  O      7.92393007      9.59868971     -3.66747811
  O     14.42720808      9.60368487     -3.66342736
  O      7.85000805     15.50868029     -3.66170648
  O     14.51404225     15.51566398     -3.66595195
  O      5.75671982      2.16324301     -5.01435958
  O      5.75975303      5.15448081     -5.01530183
  O      5.76556015      8.14428322     -5.01539114
  O      5.75653567     14.03557632     -5.01636649
  O      5.78411909     11.08130282     -5.09072135
  O      5.76834411     16.97608362     -5.06744863
  O     12.34626893      2.16631666     -5.01136403
  O     18.92693223      2.16872457     -5.01182269
  O     12.35319463      5.15333855     -5.01211275
  O     18.92479343      5.15702773     -5.01288125
  O     12.38480073      8.10072512     -4.98445473
  O     18.93235633      8.05623231     -5.01259674
  O     12.35286853     14.03080392     -5.00936198
  O     18.92498483     14.03379252     -5.01470270
  O     12.37642473     11.06886562     -4.98555887
  O     18.93427013     11.04978872     -5.01564865
  O     12.37237753     16.98851532     -4.98794386
  O     18.92340113     17.02074082     -5.01352979
  O      3.22044698      2.16860736     -5.01483320
  O      3.22535877      5.15561492     -5.01428870
  O      3.22541749      8.14656077     -5.01556500
  O      3.21913862     14.03265332     -5.01720782
  O      3.22122825     11.05180552     -5.01514675
  O      3.19055941     16.98232112     -4.99293827
  O      9.80662525      2.17046481     -5.01076665
  O     16.39100653      2.17423529     -5.01482192
  O      9.80898175      5.15497252     -5.01507870
  O     16.39253663      5.14959923     -5.01645290
  O      9.91779221      8.13950322     -5.26757440
  O     16.39480123      8.14363750     -5.01513968
  O      9.93210408     14.03336686     -5.19536888
  O     16.50904620     14.03254601     -5.20296988
  O      9.94031990     11.07440600     -5.19705723
  O     16.52457610     11.06721736     -5.19701748
  O      9.89109481     16.97561302     -5.19278317
  O     16.48915131     16.99946280     -5.19553072
  O      1.25088733      0.71851802     -6.18411049
  O      1.24511498      3.66782190     -6.18930110
  O      1.25127594      6.62532430     -6.18717196
  O      1.25087407     12.55127117     -6.19242414
  O      1.24291261      9.58949157     -6.18831295
  O      1.24441005     15.50623474     -6.18118684
  O      7.75313584      0.71934483     -6.18526678
  O     14.41859379      0.72195880     -6.18694327
  O      7.83046563      3.64396538     -6.19141794
  O     14.34234357      3.65447390     -6.19246203
  O      7.75205245      6.62230557     -6.19408800
  O     14.42223371      6.61949175     -6.19834840
  O      7.75339785     12.55076102     -6.19457837
  O     14.33862573     12.56087697     -6.19719842
  O      7.82727799      9.60001139     -6.19093921
  O     14.41597948      9.59571130     -6.19876855
  O      7.75657171     15.49529594     -6.18846092
  O     14.33832771     15.52441085     -6.20041601
 Au      9.14024720      7.41791650      8.15324517
 Au     11.26921152      5.72632086      7.53699759
 Au     11.81273068      8.16423662      8.43588436
 Au      7.11734153      9.46063807      7.65756633
 Au      8.49529295      4.72264479      8.03226724
 Au     12.09302621     10.77091434      9.07573455
 Au      9.55340513     10.11583736      8.52274682
 Au      6.60242276      6.63576401      7.75041632

