439
Energy = -13269.72643851 au
 Ti      1.57114596      0.73014075      4.67706279
 Ti      1.58225414      3.69398372      4.68349299
 Ti      1.58375081      6.64130924      4.67151321
 Ti      1.59315599     12.54856678      4.67877834
 Ti      1.57728182      9.59673024      4.66590227
 Ti      1.60509820     15.50010441      4.68037100
 Ti      7.86833357      0.72560258      4.73336542
 Ti     14.18479869      0.73282855      4.74293182
 Ti      7.87680623      3.67504861      4.72561078
 Ti     14.21174296      3.68893588      4.74775472
 Ti      7.91453685      6.63818510      4.79258620
 Ti     14.18192434      6.65031742      4.73833545
 Ti      7.87734372     12.55604893      4.73008265
 Ti     14.19711100     12.56094669      4.72589289
 Ti      7.88151644      9.60166027      4.76988347
 Ti     14.18765821      9.61709959      4.80143761
 Ti      7.88951041     15.50198690      4.73553006
 Ti     14.23897021     15.50524618      4.73422769
 Ti      4.71739222      2.19686114      5.31595232
 Ti      4.72780315      5.14497464      5.28980119
 Ti      4.72519575      8.10233267      5.29476501
 Ti      4.72287147     14.02142134      5.31335507
 Ti      4.72317091     11.07341405      5.29565529
 Ti      4.72030940     16.96731693      5.29442356
 Ti     11.03086959      2.17065415      5.32153393
 Ti     17.32590700      2.25695415      5.14069070
 Ti     11.04720460      4.96030103      4.73543450
 Ti     17.30908121      5.20929535      5.16410185
 Ti     11.03547651      8.36892049      4.79758379
 Ti     17.32689873      8.16907887      5.13204284
 Ti     11.04080759     14.08354317      5.28768624
 Ti     17.33137548     14.09441222      5.13179154
 Ti     11.02454901     11.19655337      5.23800418
 Ti     17.32611884     11.14056315      5.13991292
 Ti     11.04330250     16.97880324      5.28571703
 Ti     17.32979218     17.03371990      5.14971401
  O      4.72838701      0.72050177      3.75662394
  O      4.72477956      3.69664000      3.75450075
  O      4.72682690      6.62437479      3.75340055
  O      4.72198198     12.57894090      3.75897744
  O      4.72557755      9.60556573      3.74951099
  O      4.66187392     15.50782957      3.75201454
  O     11.03089460      0.72107737      3.77249849
  O     17.25578058      0.71678481      3.65751990
  O     11.03111516      3.55059981      3.66719411
  O     17.18428184      3.69957726      3.66015727
  O     10.96859467      6.62746258      3.74516514
  O     17.25004427      6.61897493      3.64466578
  O     10.96406067     12.58181164      3.75346115
  O     17.18736536     12.52334253      3.62622603
  O     11.02746640      9.68707484      3.60984269
  O     17.25773695      9.60043521      3.62536394
  O     11.02201208     15.51358601      3.75855814
  O     17.18523271     15.50700031      3.65462235
  O      4.72907854      0.72173445      6.38618948
  O      4.72779515      3.69121659      6.38687927
  O      4.79677402      6.63314917      6.37677261
  O      4.80898368      9.59126655      6.39115892
  O      4.72960263     12.53046924      6.38772849
  O      4.72863120     15.50553216      6.38629098
  O     11.03232042      0.71751087      6.40190137
  O     17.41146903      0.77348580      6.23616195
  O     11.02646843      3.77010003      6.24313666
  O     17.41001750      3.70927831      6.23646095
  O     17.34334437      6.68549641      6.23387542
  O     11.03455359     12.59503407      6.39265583
  O     17.41229888     12.58593148      6.22561824
  O     11.02661325      9.59902748      6.14340290
  O     17.33659704      9.61463643      6.23329729
  O     11.03006993     15.51631423      6.39324639
  O     17.41212548     15.51796526      6.23564224
  O      2.76533557      2.20851276      5.12327900
  O      2.76934592      5.18250791      5.13051326
  O      2.77724870      8.11804679      5.12782593
  O      2.75714188     14.01770603      5.19799084
  O      2.77259288     11.04071909      5.12828434
  O      2.76446295     17.00191691      5.12833871
  O      9.06922905      2.19938853      5.12680350
  O     15.35332985      2.20973773      5.19639942
  O      9.12325728      5.13076759      5.04029417
  O     15.30013873      5.18432150      5.27315446
  O      9.12967351      8.10841278      5.04618583
  O     15.34920536      8.11222247      5.11891667
  O      9.06940413     14.02647815      5.12851662
  O     15.35729380     14.02296661      5.20340285
  O      9.06661250     11.09861433      5.12165041
  O     15.35216420     11.09675278      5.19555430
  O      9.07067692     16.99536605      5.12659636
  O     15.36027731     17.00618508      5.20223368
  O      0.39098274      2.21580580      4.96176292
  O      0.38442753      5.18383452      4.96910428
  O      0.38929257      8.11769268      4.96782323
  O      0.38743261     14.02161968      4.88922138
  O      0.39054502     11.09118023      4.96691224
  O      0.39220946     16.94713360      4.96506234
  O      6.68348268      2.20415154      5.12385671
  O     12.98473232      2.21165541      5.12024044
  O      6.70023014      5.12799704      5.12383452
  O     12.92402027      5.19314142      5.04220704
  O      6.69135576      8.11335751      5.03417601
  O     12.92354988      8.09944766      5.03643304
  O      6.68352504     14.02778346      5.12368775
  O     12.97976568     14.03000708      5.04916289
  O      6.68813892     11.09083750      5.12011506
  O     12.96004042     11.10737971      5.04135845
  O      6.68478350     16.95051111      5.12315383
  O     12.99015831     16.95280744      5.11708580
 Ti      1.57541504      2.20489420      1.49720579
 Ti      1.57907569      5.16213148      1.50470092
 Ti      1.59335309      8.11817408      1.47609423
 Ti      1.56377765     14.03193679      1.50875922
 Ti      1.58121128     11.08565531      1.48725700
 Ti      1.57656472     16.97361405      1.50144934
 Ti      7.86914578      2.21633638      1.49954801
 Ti     14.25259256      2.20284894      1.50076251
 Ti      7.87189789      5.17700912      1.52859883
 Ti     14.24646161      5.17564689      1.50835288
 Ti      7.87731940      8.10555896      1.53928057
 Ti     14.26629176      8.12401377      1.52194718
 Ti      7.87953080     14.01829529      1.50516552
 Ti     14.20348671     14.00954002      1.48275725
 Ti      7.87548801     11.05025566      1.52189239
 Ti     14.25759702     11.05420752      1.52568849
 Ti      7.88203417     16.97629968      1.51652367
 Ti     14.22508095     16.97025866      1.51567904
 Ti      4.72315238      0.72993401      1.93248681
 Ti      4.70767943      3.68401743      1.92444819
 Ti      4.72680710      6.63753085      1.92817988
 Ti      4.71748667     12.56155208      1.92599758
 Ti      4.71999706      9.60656008      1.92472526
 Ti      4.70775981     15.50686056      1.91564803
 Ti     11.04363929      0.72159617      1.94221717
 Ti     17.39623482      0.71863705      1.76188165
 Ti     11.06993867      3.63978830      1.59865854
 Ti     17.35529878      3.68620704      1.76820683
 Ti     11.04239038      6.63159770      1.77081590
 Ti     17.39915455      6.63618082      1.77136626
 Ti     11.02478074     12.55728385      1.91680228
 Ti     17.35160996     12.55020831      1.76003591
 Ti     11.09767271      9.62118442      1.61849340
 Ti     17.40811985      9.59751136      1.76235402
 Ti     11.05345676     15.50937712      1.91163221
 Ti     17.33950314     15.49791568      1.75607290
  O      1.65048754      0.72056606      2.89168518
  O      1.65647447      3.69292636      2.89719024
  O      1.65499246      6.62751406      2.88742510
  O      1.65959164     12.53792073      2.89209830
  O      1.65629956      9.60344591      2.88566751
  O      1.65945206     15.50839095      2.89115676
  O      7.87700853      0.72231100      2.95399237
  O     14.25792266      0.72972706      2.95830787
  O      7.87699238      3.68766840      2.94580233
  O     14.26099602      3.69428441      2.96320772
  O      7.87996622      6.61827594      2.96027482
  O     14.26083653      6.62109649      2.95407211
  O      7.87942725     12.53373417      2.94985192
  O     14.26198107     12.53238688      2.94440335
  O      7.87948701      9.60371532      2.96267672
  O     14.25712036      9.60234387      2.96851854
  O      7.87846806     15.50736419      2.95406036
  O     14.26273752     15.50954031      2.95365890
  O      5.96201028      2.20965611      1.68273029
  O      5.95779192      5.14438151      1.67834200
  O      5.96556764      8.11644606      1.68293553
  O      5.96278495     14.02833049      1.68320786
  O      5.95882336     11.08574305      1.68254340
  O      5.95747946     16.98189295      1.68449928
  O     12.29239864      2.20258024      1.69096836
  O     18.62454767      2.21296566      1.83612603
  O     12.28450491      5.14035216      1.75725144
  O     18.62357835      5.13524063      1.83113349
  O     12.28965237      8.10475870      1.75607506
  O     18.65420056      8.11069758      1.83226681
  O     12.28688351     14.01970863      1.76174194
  O     18.61101483     14.02295887      1.83540582
  O     12.28823623     11.09461796      1.69093284
  O     18.64030418     11.09333371      1.82781750
  O     12.28920375     16.99339790      1.76204633
  O     18.61928570     16.94920398      1.83463701
  O      3.46741381      2.20599391      1.68675632
  O      3.47286225      5.17638203      1.68432718
  O      3.47481156      8.11448032      1.68769053
  O      3.46807111     14.02294181      1.68238789
  O      3.47350724     11.08933761      1.68590935
  O      3.46917468     16.99623625      1.68389541
  O      9.78361309      2.20661733      1.68089852
  O     16.13800630      2.20146156      1.53099504
  O      9.79648425      5.13424855      1.68103444
  O     16.14055119      5.18229510      1.52660639
  O      9.79582407      8.11122108      1.67966905
  O     16.14750484      8.11213629      1.52966836
  O      9.78398519     14.02531138      1.68512402
  O     16.11682326     14.02000220      1.52774829
  O      9.79107744     11.04712417      1.67665387
  O     16.14349862     11.03985760      1.52279632
  O      9.78893756     16.99228351      1.69164907
  O     16.13321270     16.99688839      1.53258021
  O      1.42400589      0.72279901      0.31637709
  O      1.42731551      3.68503861      0.31686671
  O      1.42321492      6.62476567      0.31808479
  O      1.43207719     12.57326606      0.30831575
  O      1.42700365      9.60608142      0.31305196
  O      1.42957328     15.50627804      0.31343727
  O      7.87081166      0.72870401      0.37984686
  O     14.17818286      0.72380007      0.39046386
  O      7.87549980      3.69290419      0.36528140
  O     14.17978911      3.69484819      0.38782100
  O      7.87763187      6.63136854      0.37704046
  O     14.17700352      6.63589528      0.38697059
  O      7.87206726     12.53342697      0.38279667
  O     14.18051046     12.52989772      0.38592075
  O      7.87374920      9.58453240      0.38181647
  O     14.17547114      9.58764611      0.38801779
  O      7.86966982     15.50638945      0.38507546
  O     14.17576764     15.50850195      0.38635166
 Ti      1.21202878      0.71942337     -1.75752175
 Ti      1.21975963      3.67805472     -1.74110369
 Ti      1.22111716      6.63676035     -1.75533981
 Ti      1.22849042     12.55412208     -1.76041713
 Ti      1.22816291      9.59460746     -1.76515972
 Ti      1.22709747     15.51555674     -1.75892704
 Ti      7.81592619      0.70815691     -1.75287415
 Ti     14.38158119      0.71494161     -1.74474248
 Ti      7.80441092      3.67854378     -1.75257935
 Ti     14.37667801      3.68492053     -1.74500898
 Ti      7.81736303      6.63892084     -1.77625323
 Ti     14.39331679      6.64344134     -1.77549943
 Ti      7.83696388     12.55658465     -1.73913837
 Ti     14.41282109     12.55049553     -1.76073407
 Ti      7.83299588      9.59648136     -1.75768511
 Ti     14.39561168      9.59560913     -1.76648022
 Ti      7.81589198     15.51260085     -1.75790650
 Ti     14.40934091     15.51010728     -1.75630241
 Ti      4.52199207      2.19050397     -1.59161227
 Ti      4.52373824      5.15426536     -1.55230957
 Ti      4.52843688      8.11879900     -1.54955447
 Ti      4.52242957     14.02788300     -1.58772473
 Ti      4.53079138     11.07968169     -1.59126437
 Ti      4.51358792     17.00203362     -1.57907569
 Ti     11.08823270      2.18916184     -1.58733264
 Ti     17.65604673      2.19783817     -1.55248141
 Ti     11.08432363      5.15913192     -1.58883355
 Ti     17.66893902      5.16127300     -1.56595475
 Ti     11.08575948      8.12733818     -1.56890861
 Ti     17.68745030      8.12028738     -1.56060303
 Ti     11.11629116     14.03082356     -1.56258642
 Ti     17.68818458     14.03100085     -1.55812337
 Ti     11.09881007     11.08605676     -1.56207204
 Ti     17.69462097     11.07650451     -1.55489374
 Ti     11.10410228     16.98111534     -1.56242844
 Ti     17.67622831     16.99175535     -1.55176830
 Ti      1.30369970      2.19477698     -5.04772806
 Ti      1.31326858      5.12839073     -5.06048784
 Ti      1.30359635      8.09782824     -5.06656126
 Ti      1.29820627     14.00489532     -5.04681690
 Ti      1.30725828     11.07251972     -5.06745828
 Ti      1.18973891     16.97985252     -5.06112726
 Ti      7.88664190      2.17917051     -5.02767245
 Ti     14.46226053      2.18925818     -5.03217217
 Ti      7.90023798      5.11224747     -5.08518336
 Ti     14.48015323      5.11228181     -5.08395591
 Ti      7.89220098      8.10050586     -5.10119657
 Ti     14.47471673      8.10258285     -5.09878726
 Ti      7.90136460     14.00015542     -5.07435167
 Ti     14.48080143     14.05402072     -5.10816406
 Ti      7.90055760     11.08069982     -5.06893140
 Ti     14.49247153     11.08398312     -5.09432306
 Ti      7.79144382     16.97928002     -5.08718989
 Ti     14.46501303     16.99934982     -5.08067258
 Ti      4.50271475      0.67853286     -4.94553993
 Ti      4.59738169      3.66118026     -4.86025121
 Ti      4.58795066      6.64821928     -4.84268471
 Ti      4.60536881     12.54970432     -4.94445295
 Ti      4.55390161      9.59821891     -4.86271729
 Ti      4.49358231     15.51842562     -4.83720531
 Ti     11.07892972      0.67118858     -4.85049841
 Ti     17.67039963      0.74986841     -4.84503371
 Ti     11.18252030      3.65473495     -4.85592691
 Ti     17.76770073      3.67433079     -4.85125511
 Ti     11.15972404      6.63934225     -4.84267761
 Ti     17.67063633      6.63780116     -4.84905131
 Ti     11.17112152     12.54017942     -4.85760201
 Ti     17.76086193     12.53997692     -4.85494921
 Ti     11.16798488      9.57195295     -4.84076381
 Ti     17.76496603      9.55830793     -4.84740701
 Ti     11.15998408     15.52326962     -4.85603701
 Ti     17.68720513     15.52292102     -4.85539531
  O      4.50839834      0.71926992     -0.34010255
  O      4.51180337      3.65916205     -0.33721896
  O      4.51887021      6.64521145     -0.32875073
  O      4.51161413     12.54452216     -0.34718719
  O      4.51399177      9.60207771     -0.33527885
  O      4.50858683     15.51999133     -0.34330149
  O     11.09212688      0.71909360     -0.33393099
  O     17.67306178      0.71960864     -0.32624871
  O     11.08613898      3.66660444     -0.33859022
  O     17.67187301      3.67579707     -0.33129425
  O     11.08687446      6.64625509     -0.33282806
  O     17.67882754      6.64937818     -0.33545907
  O     11.09791677     12.54805853     -0.32934449
  O     17.68737917     12.54486418     -0.32962540
  O     11.08851999      9.59698890     -0.33086711
  O     17.68149603      9.59505575     -0.33078478
  O     11.10075215     15.51551655     -0.32912311
  O     17.68061647     15.52098124     -0.32755178
  O      2.52847458      2.19707998     -1.67679718
  O      2.52832193      5.15681189     -1.59992168
  O      2.53206906      8.11526864     -1.59912302
  O      2.53200488     14.03278665     -1.67630701
  O      2.53590867     11.07698556     -1.67230927
  O      2.52677125     17.00029427     -1.67740184
  O      9.11406052      2.19884860     -1.67864147
  O     15.66027481      2.20128230     -1.60682690
  O      9.11371744      5.15178411     -1.67959564
  O     15.68312353      5.15606203     -1.67034020
  O      9.11588751      8.11405535     -1.67463941
  O     15.69644398      8.11745240     -1.67484631
  O      9.12073918     14.04147867     -1.59814875
  O     15.69885201     14.03604208     -1.59316166
  O      9.11817370     11.07935990     -1.59758737
  O     15.69852913     11.07306338     -1.59923402
  O      9.11734449     16.99008436     -1.59691019
  O     15.68684695     16.99659036     -1.59685671
  O     -0.10072615      2.20175982     -1.60244580
  O     -0.09579378      5.15240906     -1.67670630
  O     -0.07514011      8.11249668     -1.67802483
  O     -0.07997509     14.03686181     -1.67843142
  O     -0.06251463     11.07923762     -1.67655237
  O     -0.08890155     16.99510939     -1.61109102
  O      6.53071700      2.19032508     -1.67172479
  O     13.06451304      2.19708269     -1.67898259
  O      6.52627547      5.15988572     -1.66892877
  O     13.06317794      5.16288646     -1.67592260
  O      6.53688575      8.12127107     -1.67584601
  O     13.06545909      8.11712948     -1.67680757
  O      6.53388118     14.03021317     -1.67708590
  O     13.11354058     14.03292781     -1.68743175
  O      6.54354296     11.07890128     -1.68159552
  O     13.07787612     11.07697217     -1.68239403
  O      6.51999909     16.98999569     -1.67025951
  O     13.08496487     16.98988190     -1.68200143
  O      4.53786602      0.70758103     -2.98954359
  O      4.54403684      3.67864201     -2.95059834
  O      4.54353763      6.63931244     -2.94590286
  O      4.54931403     12.55001857     -3.00414110
  O      4.54615327      9.59563606     -2.95107735
  O      4.54267882     15.51674688     -2.94921836
  O     11.04506561      0.70543087     -2.94757649
  O     17.62852426      0.71755324     -2.94208397
  O     11.12606359      3.67523189     -2.95208329
  O     17.64228330      3.67077609     -2.95163973
  O     11.04922967      6.64422526     -2.95127756
  O     17.63499851      6.63701585     -2.94918907
  O     11.04627626     12.55632668     -2.94631192
  O     17.63298724     12.55424168     -2.94694517
  O     11.04425365      9.59476593     -2.94705195
  O     17.71067856      9.59785626     -2.94637882
  O     11.11407381     15.51567955     -2.94738607
  O     17.62761844     15.51867240     -2.94770046
  O      1.16730567      0.72032719     -3.64614811
  O      1.24142946      3.67323106     -3.64559693
  O      1.25422791      6.63149921     -3.64836590
  O      1.24573761     12.55074781     -3.65661944
  O      1.24698371      9.58996293     -3.65482874
  O      1.24079256     15.51415465     -3.64850943
  O      7.84755798      0.65822843     -3.65317225
  O     14.42834009      0.70876926     -3.65114366
  O      7.75772666      3.67282632     -3.65992126
  O     14.41503644      3.67239459     -3.65396500
  O      7.84214381      6.64068554     -3.67133771
  O     14.41796467      6.63181367     -3.66446899
  O      7.92675950     12.55284276     -3.66165811
  O     14.51267915     12.55925359     -3.66583031
  O      7.92393007      9.59868971     -3.66747811
  O     14.42720808      9.60368487     -3.66342736
  O      7.85000805     15.50868029     -3.66170648
  O     14.51404225     15.51566398     -3.66595195
  O      5.75671982      2.16324301     -5.01435958
  O      5.75975303      5.15448081     -5.01530183
  O      5.76556015      8.14428322     -5.01539114
  O      5.75653567     14.03557632     -5.01636649
  O      5.78411909     11.08130282     -5.09072135
  O      5.76834411     16.97608362     -5.06744863
  O     12.34626893      2.16631666     -5.01136403
  O     18.92693223      2.16872457     -5.01182269
  O     12.35319463      5.15333855     -5.01211275
  O     18.92479343      5.15702773     -5.01288125
  O     12.38480073      8.10072512     -4.98445473
  O     18.93235633      8.05623231     -5.01259674
  O     12.35286853     14.03080392     -5.00936198
  O     18.92498483     14.03379252     -5.01470270
  O     12.37642473     11.06886562     -4.98555887
  O     18.93427013     11.04978872     -5.01564865
  O     12.37237753     16.98851532     -4.98794386
  O     18.92340113     17.02074082     -5.01352979
  O      3.22044698      2.16860736     -5.01483320
  O      3.22535877      5.15561492     -5.01428870
  O      3.22541749      8.14656077     -5.01556500
  O      3.21913862     14.03265332     -5.01720782
  O      3.22122825     11.05180552     -5.01514675
  O      3.19055941     16.98232112     -4.99293827
  O      9.80662525      2.17046481     -5.01076665
  O     16.39100653      2.17423529     -5.01482192
  O      9.80898175      5.15497252     -5.01507870
  O     16.39253663      5.14959923     -5.01645290
  O      9.91779221      8.13950322     -5.26757440
  O     16.39480123      8.14363750     -5.01513968
  O      9.93210408     14.03336686     -5.19536888
  O     16.50904620     14.03254601     -5.20296988
  O      9.94031990     11.07440600     -5.19705723
  O     16.52457610     11.06721736     -5.19701748
  O      9.89109481     16.97561302     -5.19278317
  O     16.48915131     16.99946280     -5.19553072
  O      1.25088733      0.71851802     -6.18411049
  O      1.24511498      3.66782190     -6.18930110
  O      1.25127594      6.62532430     -6.18717196
  O      1.25087407     12.55127117     -6.19242414
  O      1.24291261      9.58949157     -6.18831295
  O      1.24441005     15.50623474     -6.18118684
  O      7.75313584      0.71934483     -6.18526678
  O     14.41859379      0.72195880     -6.18694327
  O      7.83046563      3.64396538     -6.19141794
  O     14.34234357      3.65447390     -6.19246203
  O      7.75205245      6.62230557     -6.19408800
  O     14.42223371      6.61949175     -6.19834840
  O      7.75339785     12.55076102     -6.19457837
  O     14.33862573     12.56087697     -6.19719842
  O      7.82727799      9.60001139     -6.19093921
  O     14.41597948      9.59571130     -6.19876855
  O      7.75657171     15.49529594     -6.18846092
  O     14.33832771     15.52441085     -6.20041601
 Au     12.64034583      7.49854779      7.95464194
 Au      9.88550446      8.18859868      8.28807472
 Au     14.54831831      9.45324045      7.71031004
 Au      9.40459737     10.90402361      8.60833313
 Au     10.66016331      5.71970900      7.51212793
 Au      7.76897134      6.49693673      7.64422239
 Au     12.05145972     10.12714864      8.57156045
 Au      7.36758866      9.22008538      7.77771348
