439
Energy = -13269.71428724 au
 Ti      1.56957514      0.72365694      4.67723993
 Ti      1.57536914      3.67990579      4.67874251
 Ti      1.58794100      6.62422826      4.67375747
 Ti      1.57750672     12.53541873      4.68166820
 Ti      1.58928196      9.57894266      4.66439554
 Ti      1.61408267     15.49322506      4.67696629
 Ti      7.86428957      0.72512191      4.73511365
 Ti     14.19068703      0.72418665      4.74285293
 Ti      7.88860247      3.68096006      4.73788048
 Ti     14.19341157      3.67195761      4.74387610
 Ti      7.87929229      6.63278976      4.74556825
 Ti     14.20290588      6.62415187      4.74398078
 Ti      7.87563827     12.55310506      4.72742789
 Ti     14.19229085     12.55273046      4.72569519
 Ti      7.88523509      9.60147320      4.80360425
 Ti     14.18371343      9.59584464      4.79244833
 Ti      7.89376719     15.49999817      4.73477011
 Ti     14.23859465     15.49954133      4.73384531
 Ti      4.71560127      2.20108813      5.31317718
 Ti      4.72221964      5.14795737      5.29472465
 Ti      4.72301198      8.10567431      5.30073533
 Ti      4.72196862     14.02442712      5.31324004
 Ti      4.71454444     11.08111501      5.28264539
 Ti      4.72127933     16.97075462      5.29406742
 Ti     11.03241047      2.13462573      5.29965976
 Ti     17.32228101      2.13098876      5.13755820
 Ti     11.03502279      4.92870880      4.79106737
 Ti     17.30802759      5.07627810      5.15377018
 Ti     11.03867134      8.35035314      4.79570144
 Ti     17.33524802      8.03470685      5.12067509
 Ti     11.04388542     14.06401983      5.28927543
 Ti     17.33214589     13.97705144      5.13300573
 Ti     11.03551268     11.15928143      5.27779394
 Ti     17.33222077     11.02717309      5.12632033
 Ti     11.04469100     16.95841978      5.28491275
 Ti     17.33255018     16.91607245      5.14785718
  O      4.72980864      0.71800131      3.75455889
  O      4.72745060      3.69433240      3.75377128
  O      4.72721654      6.62311857      3.75403146
  O      4.71923655     12.53617908      3.75608416
  O      4.72365804      9.59717249      3.74845717
  O      4.66060092     15.50334553      3.75382533
  O     11.03080711      0.71793934      3.76789452
  O     17.25574924      0.71911669      3.65875213
  O     11.02456698      3.55998148      3.66932281
  O     17.18732967      3.70230215      3.65789860
  O     11.02041286      6.61437012      3.75152241
  O     17.25181363      6.62151768      3.62676457
  O     11.02608756     12.52755716      3.76129783
  O     17.24309196     12.52921798      3.62846918
  O     11.03326173      9.68726432      3.62707131
  O     17.26210341      9.60591157      3.61593368
  O     11.02162801     15.51090205      3.75869606
  O     17.18541636     15.50928859      3.65725573
  O      4.73017251      0.72202434      6.38402420
  O      4.72884422      3.68824078      6.38591984
  O      4.73186320      6.63032160      6.37550219
  O      4.80445133      9.59816290      6.38776234
  O      4.73219135     12.53035211      6.38542042
  O      4.72848917     15.50336300      6.38543740
  O     11.03197165      0.70739417      6.39967086
  O     17.41181919      0.70323242      6.23797220
  O     11.03116675      3.72091750      6.24393793
  O     17.41149878      3.63934947      6.23534179
  O     17.33838853      6.61501018      6.22818578
  O     11.03275345     12.58684542      6.39634884
  O     17.41153891     12.51362446      6.22448841
  O     11.03355711      9.53864256      6.16456907
  O     17.32462347      9.54543420      6.23388206
  O     11.03015199     15.50773160      6.39229565
  O     17.41295024     15.44820208      6.23416002
  O      2.76529401      2.20406891      5.12226507
  O      2.76622382      5.13863248      5.12700648
  O      2.77358135      8.10966113      5.12811287
  O      2.75690147     14.00965541      5.19504581
  O      2.76890826     11.03961745      5.12861571
  O      2.76556229     16.99906991      5.12867680
  O      9.06756477      2.19962571      5.12529434
  O     15.35383465      2.20164691      5.19574443
  O      9.12438341      5.18955345      5.12111465
  O     15.30290247      5.12891736      5.27309466
  O      9.12874952      8.09593598      5.03413503
  O     15.36037357      8.10491540      5.04148697
  O      9.07459606     14.02387162      5.12335912
  O     15.35823189     14.01347994      5.20215416
  O      9.07137652     11.09818554      5.12513401
  O     15.36609046     11.09225042      5.11816934
  O      9.07020648     16.99574342      5.12596769
  O     15.36157337     16.99840999      5.20300460
  O      0.38886466      2.20531814      4.96250034
  O      0.38231234      5.17250686      4.96957740
  O      0.38964057      8.10637874      4.96590404
  O      0.38914671     14.01718705      4.89237767
  O      0.39154611     11.03958042      4.96878866
  O      0.39329920     16.93862134      4.96414107
  O      6.68709121      2.21092772      5.12224063
  O     12.98434323      2.20100035      5.11973963
  O      6.70228438      5.13741320      5.12983619
  O     12.92213393      5.18180684      5.04401081
  O      6.69501505      8.10011912      5.10553968
  O     12.93007817      8.05494358      5.03132973
  O      6.68454810     14.02569179      5.12215565
  O     12.97961806     14.03175555      5.05055765
  O      6.67549016     11.09721409      5.04770349
  O     12.98433949     11.09830232      5.12005290
  O      6.68506116     16.94928399      5.12287888
  O     12.99110714     16.94691997      5.11723546
 Ti      1.57948753      2.20179845      1.49767825
 Ti      1.58056886      5.15474296      1.50431422
 Ti      1.59085560      8.11471802      1.47252104
 Ti      1.56635569     14.02250505      1.49940127
 Ti      1.58206686     11.07276634      1.49678889
 Ti      1.57683317     16.96990904      1.50216691
 Ti      7.87489152      2.20645122      1.50852551
 Ti     14.25224620      2.20543622      1.50041562
 Ti      7.87432343      5.17178996      1.50875657
 Ti     14.24773184      5.17503740      1.51124084
 Ti      7.87835468      8.12293992      1.53346469
 Ti     14.26619442      8.11858725      1.52181284
 Ti      7.88111600     14.01271669      1.49995969
 Ti     14.20590107     14.01021081      1.48465609
 Ti      7.87828893     11.04989260      1.53918101
 Ti     14.25900176     11.05393000      1.52105459
 Ti      7.88228957     16.96821563      1.51705173
 Ti     14.22595615     16.97195445      1.51528045
 Ti      4.72571866      0.72414279      1.92964788
 Ti      4.71991526      3.68050240      1.92732459
 Ti      4.71773409      6.63445772      1.92633344
 Ti      4.71889468     12.55209553      1.92400063
 Ti      4.72198129      9.60188017      1.92462197
 Ti      4.70565893     15.49972122      1.91599631
 Ti     11.04584835      0.71963363      1.93246842
 Ti     17.39762341      0.71810943      1.75773607
 Ti     11.07262358      3.64540940      1.59770121
 Ti     17.35825378      3.68406259      1.76149462
 Ti     11.04823593      6.62783217      1.81514801
 Ti     17.40060030      6.63429615      1.75821681
 Ti     11.03313556     12.54884554      1.92605523
 Ti     17.36242281     12.54732588      1.75534288
 Ti     11.09779216      9.61586593      1.61802432
 Ti     17.40547390      9.59532254      1.76461845
 Ti     11.05283441     15.50513973      1.91080848
 Ti     17.34065312     15.49622584      1.75720352
  O      1.65068532      0.71886804      2.89146773
  O      1.65431466      3.68905807      2.89252955
  O      1.65725733      6.62325281      2.88965862
  O      1.65875124     12.53562852      2.89761560
  O      1.65765303      9.59873727      2.88354127
  O      1.66015714     15.50529671      2.88915808
  O      7.87665086      0.72106668      2.95456268
  O     14.25830285      0.72617874      2.95800417
  O      7.87949305      3.69503024      2.95748736
  O     14.26072309      3.69141782      2.95907911
  O      7.88025787      6.61918049      2.95623003
  O     14.26046790      6.61557213      2.95237592
  O      7.88267203     12.53685349      2.94652372
  O     14.25959012     12.53199803      2.94425472
  O      7.87804448      9.59932708      2.96894269
  O     14.25286144      9.60459554      2.96756208
  O      7.87944800     15.50677105      2.95441238
  O     14.26350831     15.50891354      2.95338546
  O      5.96875481      2.20618665      1.68268282
  O      5.96270791      5.16697258      1.67940165
  O      5.96536301      8.11188546      1.68344513
  O      5.96316150     14.02510060      1.68488632
  O      5.96162632     11.08175563      1.68108222
  O      5.95817316     16.95879090      1.68454819
  O     12.29190919      2.20290999      1.69153476
  O     18.62562136      2.21224318      1.83574156
  O     12.28583504      5.13487422      1.75449825
  O     18.62701490      5.13363605      1.82927403
  O     12.29072037      8.10653885      1.75665135
  O     18.65588070      8.11037163      1.83098957
  O     12.28805018     14.01939981      1.76164464
  O     18.61864010     14.02589348      1.83226075
  O     12.28967244     11.08986832      1.68847477
  O     18.64214302     11.09009682      1.82455895
  O     12.28948448     16.99218905      1.76156510
  O     18.62064643     16.94980504      1.83507767
  O      3.47131724      2.20424912      1.68780341
  O      3.47465154      5.14373399      1.68440821
  O      3.47409468      8.11348129      1.68652019
  O      3.46735251     14.01912854      1.68245384
  O      3.47547578     11.08420957      1.68568003
  O      3.47001918     16.99602349      1.68403657
  O      9.78366028      2.20654178      1.68147977
  O     16.13915985      2.20126233      1.53108726
  O      9.79589283      5.13747282      1.68322141
  O     16.14162658      5.18019274      1.52499567
  O      9.79773665      8.10912304      1.68410067
  O     16.14690969      8.11213707      1.52863047
  O      9.78707185     14.02159021      1.69007731
  O     16.12454387     14.01827348      1.53015114
  O      9.79365781     11.04542657      1.67884480
  O     16.14441402     11.04619289      1.52463102
  O      9.78905822     16.99072505      1.69121409
  O     16.13520170     16.99687073      1.53258641
  O      1.42409260      0.72068371      0.31643242
  O      1.42716455      3.68103773      0.31520150
  O      1.42369906      6.62203075      0.31801258
  O      1.43315889     12.54787227      0.30917268
  O      1.42793941      9.60337691      0.31208734
  O      1.43078648     15.50364294      0.31254602
  O      7.87086250      0.72689885      0.38322648
  O     14.17824832      0.72351572      0.39024527
  O      7.87490038      3.68982045      0.36888179
  O     14.18027451      3.69364650      0.38670488
  O      7.87872434      6.63492675      0.37677641
  O     14.17733220      6.63480607      0.38648272
  O      7.87251037     12.53050259      0.38403853
  O     14.18093697     12.53143351      0.38561235
  O      7.87478731      9.58945171      0.38177483
  O     14.17661050      9.58590531      0.38828862
  O      7.87096946     15.50470084      0.38302223
  O     14.17689547     15.50784791      0.38700888
 Ti      1.21202878      0.71942337     -1.75752175
 Ti      1.21975963      3.67805472     -1.74110369
 Ti      1.22111716      6.63676035     -1.75533981
 Ti      1.22849042     12.55412208     -1.76041713
 Ti      1.22816291      9.59460746     -1.76515972
 Ti      1.22709747     15.51555674     -1.75892704
 Ti      7.81592619      0.70815691     -1.75287415
 Ti     14.38158119      0.71494161     -1.74474248
 Ti      7.80441092      3.67854378     -1.75257935
 Ti     14.37667801      3.68492053     -1.74500898
 Ti      7.81736303      6.63892084     -1.77625323
 Ti     14.39331679      6.64344134     -1.77549943
 Ti      7.83696388     12.55658465     -1.73913837
 Ti     14.41282109     12.55049553     -1.76073407
 Ti      7.83299588      9.59648136     -1.75768511
 Ti     14.39561168      9.59560913     -1.76648022
 Ti      7.81589198     15.51260085     -1.75790650
 Ti     14.40934091     15.51010728     -1.75630241
 Ti      4.52199207      2.19050397     -1.59161227
 Ti      4.52373824      5.15426536     -1.55230957
 Ti      4.52843688      8.11879900     -1.54955447
 Ti      4.52242957     14.02788300     -1.58772473
 Ti      4.53079138     11.07968169     -1.59126437
 Ti      4.51358792     17.00203362     -1.57907569
 Ti     11.08823270      2.18916184     -1.58733264
 Ti     17.65604673      2.19783817     -1.55248141
 Ti     11.08432363      5.15913192     -1.58883355
 Ti     17.66893902      5.16127300     -1.56595475
 Ti     11.08575948      8.12733818     -1.56890861
 Ti     17.68745030      8.12028738     -1.56060303
 Ti     11.11629116     14.03082356     -1.56258642
 Ti     17.68818458     14.03100085     -1.55812337
 Ti     11.09881007     11.08605676     -1.56207204
 Ti     17.69462097     11.07650451     -1.55489374
 Ti     11.10410228     16.98111534     -1.56242844
 Ti     17.67622831     16.99175535     -1.55176830
 Ti      1.30369970      2.19477698     -5.04772806
 Ti      1.31326858      5.12839073     -5.06048784
 Ti      1.30359635      8.09782824     -5.06656126
 Ti      1.29820627     14.00489532     -5.04681690
 Ti      1.30725828     11.07251972     -5.06745828
 Ti      1.18973891     16.97985252     -5.06112726
 Ti      7.88664190      2.17917051     -5.02767245
 Ti     14.46226053      2.18925818     -5.03217217
 Ti      7.90023798      5.11224747     -5.08518336
 Ti     14.48015323      5.11228181     -5.08395591
 Ti      7.89220098      8.10050586     -5.10119657
 Ti     14.47471673      8.10258285     -5.09878726
 Ti      7.90136460     14.00015542     -5.07435167
 Ti     14.48080143     14.05402072     -5.10816406
 Ti      7.90055760     11.08069982     -5.06893140
 Ti     14.49247153     11.08398312     -5.09432306
 Ti      7.79144382     16.97928002     -5.08718989
 Ti     14.46501303     16.99934982     -5.08067258
 Ti      4.50271475      0.67853286     -4.94553993
 Ti      4.59738169      3.66118026     -4.86025121
 Ti      4.58795066      6.64821928     -4.84268471
 Ti      4.60536881     12.54970432     -4.94445295
 Ti      4.55390161      9.59821891     -4.86271729
 Ti      4.49358231     15.51842562     -4.83720531
 Ti     11.07892972      0.67118858     -4.85049841
 Ti     17.67039963      0.74986841     -4.84503371
 Ti     11.18252030      3.65473495     -4.85592691
 Ti     17.76770073      3.67433079     -4.85125511
 Ti     11.15972404      6.63934225     -4.84267761
 Ti     17.67063633      6.63780116     -4.84905131
 Ti     11.17112152     12.54017942     -4.85760201
 Ti     17.76086193     12.53997692     -4.85494921
 Ti     11.16798488      9.57195295     -4.84076381
 Ti     17.76496603      9.55830793     -4.84740701
 Ti     11.15998408     15.52326962     -4.85603701
 Ti     17.68720513     15.52292102     -4.85539531
  O      4.50839834      0.71926992     -0.34010255
  O      4.51180337      3.65916205     -0.33721896
  O      4.51887021      6.64521145     -0.32875073
  O      4.51161413     12.54452216     -0.34718719
  O      4.51399177      9.60207771     -0.33527885
  O      4.50858683     15.51999133     -0.34330149
  O     11.09212688      0.71909360     -0.33393099
  O     17.67306178      0.71960864     -0.32624871
  O     11.08613898      3.66660444     -0.33859022
  O     17.67187301      3.67579707     -0.33129425
  O     11.08687446      6.64625509     -0.33282806
  O     17.67882754      6.64937818     -0.33545907
  O     11.09791677     12.54805853     -0.32934449
  O     17.68737917     12.54486418     -0.32962540
  O     11.08851999      9.59698890     -0.33086711
  O     17.68149603      9.59505575     -0.33078478
  O     11.10075215     15.51551655     -0.32912311
  O     17.68061647     15.52098124     -0.32755178
  O      2.52847458      2.19707998     -1.67679718
  O      2.52832193      5.15681189     -1.59992168
  O      2.53206906      8.11526864     -1.59912302
  O      2.53200488     14.03278665     -1.67630701
  O      2.53590867     11.07698556     -1.67230927
  O      2.52677125     17.00029427     -1.67740184
  O      9.11406052      2.19884860     -1.67864147
  O     15.66027481      2.20128230     -1.60682690
  O      9.11371744      5.15178411     -1.67959564
  O     15.68312353      5.15606203     -1.67034020
  O      9.11588751      8.11405535     -1.67463941
  O     15.69644398      8.11745240     -1.67484631
  O      9.12073918     14.04147867     -1.59814875
  O     15.69885201     14.03604208     -1.59316166
  O      9.11817370     11.07935990     -1.59758737
  O     15.69852913     11.07306338     -1.59923402
  O      9.11734449     16.99008436     -1.59691019
  O     15.68684695     16.99659036     -1.59685671
  O     -0.10072615      2.20175982     -1.60244580
  O     -0.09579378      5.15240906     -1.67670630
  O     -0.07514011      8.11249668     -1.67802483
  O     -0.07997509     14.03686181     -1.67843142
  O     -0.06251463     11.07923762     -1.67655237
  O     -0.08890155     16.99510939     -1.61109102
  O      6.53071700      2.19032508     -1.67172479
  O     13.06451304      2.19708269     -1.67898259
  O      6.52627547      5.15988572     -1.66892877
  O     13.06317794      5.16288646     -1.67592260
  O      6.53688575      8.12127107     -1.67584601
  O     13.06545909      8.11712948     -1.67680757
  O      6.53388118     14.03021317     -1.67708590
  O     13.11354058     14.03292781     -1.68743175
  O      6.54354296     11.07890128     -1.68159552
  O     13.07787612     11.07697217     -1.68239403
  O      6.51999909     16.98999569     -1.67025951
  O     13.08496487     16.98988190     -1.68200143
  O      4.53786602      0.70758103     -2.98954359
  O      4.54403684      3.67864201     -2.95059834
  O      4.54353763      6.63931244     -2.94590286
  O      4.54931403     12.55001857     -3.00414110
  O      4.54615327      9.59563606     -2.95107735
  O      4.54267882     15.51674688     -2.94921836
  O     11.04506561      0.70543087     -2.94757649
  O     17.62852426      0.71755324     -2.94208397
  O     11.12606359      3.67523189     -2.95208329
  O     17.64228330      3.67077609     -2.95163973
  O     11.04922967      6.64422526     -2.95127756
  O     17.63499851      6.63701585     -2.94918907
  O     11.04627626     12.55632668     -2.94631192
  O     17.63298724     12.55424168     -2.94694517
  O     11.04425365      9.59476593     -2.94705195
  O     17.71067856      9.59785626     -2.94637882
  O     11.11407381     15.51567955     -2.94738607
  O     17.62761844     15.51867240     -2.94770046
  O      1.16730567      0.72032719     -3.64614811
  O      1.24142946      3.67323106     -3.64559693
  O      1.25422791      6.63149921     -3.64836590
  O      1.24573761     12.55074781     -3.65661944
  O      1.24698371      9.58996293     -3.65482874
  O      1.24079256     15.51415465     -3.64850943
  O      7.84755798      0.65822843     -3.65317225
  O     14.42834009      0.70876926     -3.65114366
  O      7.75772666      3.67282632     -3.65992126
  O     14.41503644      3.67239459     -3.65396500
  O      7.84214381      6.64068554     -3.67133771
  O     14.41796467      6.63181367     -3.66446899
  O      7.92675950     12.55284276     -3.66165811
  O     14.51267915     12.55925359     -3.66583031
  O      7.92393007      9.59868971     -3.66747811
  O     14.42720808      9.60368487     -3.66342736
  O      7.85000805     15.50868029     -3.66170648
  O     14.51404225     15.51566398     -3.66595195
  O      5.75671982      2.16324301     -5.01435958
  O      5.75975303      5.15448081     -5.01530183
  O      5.76556015      8.14428322     -5.01539114
  O      5.75653567     14.03557632     -5.01636649
  O      5.78411909     11.08130282     -5.09072135
  O      5.76834411     16.97608362     -5.06744863
  O     12.34626893      2.16631666     -5.01136403
  O     18.92693223      2.16872457     -5.01182269
  O     12.35319463      5.15333855     -5.01211275
  O     18.92479343      5.15702773     -5.01288125
  O     12.38480073      8.10072512     -4.98445473
  O     18.93235633      8.05623231     -5.01259674
  O     12.35286853     14.03080392     -5.00936198
  O     18.92498483     14.03379252     -5.01470270
  O     12.37642473     11.06886562     -4.98555887
  O     18.93427013     11.04978872     -5.01564865
  O     12.37237753     16.98851532     -4.98794386
  O     18.92340113     17.02074082     -5.01352979
  O      3.22044698      2.16860736     -5.01483320
  O      3.22535877      5.15561492     -5.01428870
  O      3.22541749      8.14656077     -5.01556500
  O      3.21913862     14.03265332     -5.01720782
  O      3.22122825     11.05180552     -5.01514675
  O      3.19055941     16.98232112     -4.99293827
  O      9.80662525      2.17046481     -5.01076665
  O     16.39100653      2.17423529     -5.01482192
  O      9.80898175      5.15497252     -5.01507870
  O     16.39253663      5.14959923     -5.01645290
  O      9.91779221      8.13950322     -5.26757440
  O     16.39480123      8.14363750     -5.01513968
  O      9.93210408     14.03336686     -5.19536888
  O     16.50904620     14.03254601     -5.20296988
  O      9.94031990     11.07440600     -5.19705723
  O     16.52457610     11.06721736     -5.19701748
  O      9.89109481     16.97561302     -5.19278317
  O     16.48915131     16.99946280     -5.19553072
  O      1.25088733      0.71851802     -6.18411049
  O      1.24511498      3.66782190     -6.18930110
  O      1.25127594      6.62532430     -6.18717196
  O      1.25087407     12.55127117     -6.19242414
  O      1.24291261      9.58949157     -6.18831295
  O      1.24441005     15.50623474     -6.18118684
  O      7.75313584      0.71934483     -6.18526678
  O     14.41859379      0.72195880     -6.18694327
  O      7.83046563      3.64396538     -6.19141794
  O     14.34234357      3.65447390     -6.19246203
  O      7.75205245      6.62230557     -6.19408800
  O     14.42223371      6.61949175     -6.19834840
  O      7.75339785     12.55076102     -6.19457837
  O     14.33862573     12.56087697     -6.19719842
  O      7.82727799      9.60001139     -6.19093921
  O     14.41597948      9.59571130     -6.19876855
  O      7.75657171     15.49529594     -6.18846092
  O     14.33832771     15.52441085     -6.20041601
 Au      9.03458567      7.61792991      7.80084205
 Au      9.76458892     10.28667150      8.68927207
 Au     12.50988584     10.22745228      8.63854493
 Au      7.27192895      9.61806689      7.66779914
 Au     14.97442985      9.49257316      7.62901325
 Au     13.15348998      7.54468261      7.79292654
 Au     11.09956692      8.02850492      9.56698225
 Au     11.06059594      5.77669143      7.67106082
