439
Energy = -13269.72307133 au
 Ti      1.56632539      0.72260952      4.68652181
 Ti      1.59811107      3.68061589      4.67378113
 Ti      1.56056892      6.63180948      4.67042984
 Ti      1.59124011     12.54567266      4.67730874
 Ti      1.56460234      9.59165098      4.66831815
 Ti      1.60328039     15.49621164      4.68721542
 Ti      7.86696637      0.72595279      4.73384944
 Ti     14.18251649      0.72778863      4.73675378
 Ti      7.89306380      3.68411457      4.73835171
 Ti     14.19079510      3.69171798      4.88643001
 Ti      7.89386464      6.64277198      4.80385464
 Ti     14.17904412      6.64364037      4.73529081
 Ti      7.88084588     12.55107653      4.72833473
 Ti     14.22928264     12.54571696      4.73272745
 Ti      7.88038015      9.60726596      4.77063746
 Ti     14.18552581      9.60065109      4.73110365
 Ti      7.89573643     15.50004427      4.73507088
 Ti     14.23276109     15.50155905      4.72681530
 Ti      4.72342170      2.18397107      5.31265100
 Ti      4.71766974      5.10989606      5.25827143
 Ti      4.70483971      8.06562441      5.20822145
 Ti      4.72578523     14.02828581      5.30306175
 Ti      4.71226541     11.08628297      5.27953888
 Ti      4.72137028     16.96310381      5.28978351
 Ti     11.03263353      2.13308243      5.29220670
 Ti     17.33269785      2.14942444      5.13751819
 Ti     11.03649633      4.92213966      4.85248274
 Ti     17.32328099      5.12658562      5.13483081
 Ti     11.01926937      8.34509691      4.80734841
 Ti     17.30445153      8.08791104      5.16000342
 Ti     11.05271814     14.07928622      5.28077242
 Ti     17.33225426     13.98619115      5.13699007
 Ti     11.04941818     11.18160292      5.28514394
 Ti     17.32454918     11.03595465      5.13919751
 Ti     11.04590113     16.96770348      5.28624722
 Ti     17.32439994     16.92493520      5.14835662
  O      4.73031893      0.71946005      3.75664375
  O      4.72312981      3.69636072      3.75367051
  O      4.72350453      6.62439294      3.73481022
  O      4.71902912     12.52969220      3.76056841
  O      4.71781722      9.60084622      3.73933301
  O      4.66194662     15.50120070      3.75527922
  O     11.02950434      0.71745533      3.76550548
  O     17.26134184      0.71777477      3.65964705
  O     11.02722492      3.61394848      3.66998800
  O     17.25585750      3.70187631      3.61423832
  O     11.01306406      6.64324519      3.76666449
  O     17.25472145      6.68316679      3.64333215
  O     11.02527332     12.53078119      3.75935568
  O     17.18532638     12.53000190      3.62372896
  O     11.02648867      9.68719300      3.66634430
  O     17.25409823      9.60186587      3.65148523
  O     11.02217923     15.51019445      3.75844231
  O     17.18839636     15.51337258      3.65755183
  O      4.73009566      0.71801680      6.38647649
  O      4.72708857      3.68723892      6.38278418
  O      4.80578237      6.62631495      6.33032847
  O      4.80811974      9.54332232      6.38765606
  O      4.73160126     12.52475592      6.38055963
  O      4.72920197     15.49989656      6.38410570
  O     11.03107385      0.70735505      6.39974282
  O     17.40840615      0.71506326      6.23671474
  O     11.02457973      3.70458130      6.23821425
  O     17.33788479      3.67813900      6.22442685
  O     17.34734652      6.61878430      6.23184827
  O     11.02962592     12.59842497      6.40170211
  O     17.41187078     12.52658952      6.22634761
  O     11.04255668      9.60293640      6.23660562
  O     17.41031026      9.58880542      6.23580699
  O     11.03067690     15.50909988      6.39226781
  O     17.40996404     15.45294353      6.23484456
  O      2.76834742      2.20176510      5.12431575
  O      2.76839703      5.18355111      5.12970378
  O      2.77096989      8.11165511      5.12383413
  O      2.75923998     14.01661717      5.19825615
  O      2.77549018     11.03326805      5.13190801
  O      2.76888411     16.99956421      5.12604909
  O      9.06715103      2.19740967      5.12435758
  O     15.36615313      2.19429517      5.11932694
  O      9.12688059      5.18364314      5.11189267
  O     15.35535956      5.20166363      5.10927721
  O      9.12429506      8.10769300      5.12081914
  O     15.31172943      8.12190813      5.20799642
  O      9.07497169     14.02316629      5.12445931
  O     15.35939955     14.01687302      5.20371166
  O      9.07345232     11.09945605      5.11491481
  O     15.35701727     11.03743701      5.19861091
  O      9.06996691     16.99427714      5.12602781
  O     15.35979461     17.00002001      5.20280534
  O      0.39098924      2.21255810      4.96645242
  O      0.38819308      5.13660899      4.96854653
  O      0.38748224      8.11103246      4.96970707
  O      0.38872666     14.01669798      4.88839876
  O      0.39590910     11.09177965      4.96253728
  O      0.39781909     16.94062237      5.03140706
  O      6.68635822      2.21017125      5.12276189
  O     12.97514523      2.18932071      5.10753347
  O      6.69785473      5.12161668      5.11136995
  O     12.92433567      5.20562694      5.03735783
  O      6.68557954      8.11682256      4.96305535
  O     12.92246641      8.11245141      5.04282622
  O      6.68399607     14.02515402      5.12299318
  O     12.98689298     14.02001721      5.04797480
  O      6.67534448     11.08802952      5.04541830
  O     12.99041128     11.10013635      5.11921782
  O      6.68454852     16.94820733      5.12301078
  O     12.98868182     16.94315886      5.11606191
 Ti      1.58123265      2.19972845      1.49093401
 Ti      1.57885413      5.16001122      1.50121432
 Ti      1.58822045      8.11513140      1.47353941
 Ti      1.55974790     14.02407766      1.50143046
 Ti      1.57737317     11.07546267      1.49680704
 Ti      1.57188817     16.96966558      1.50897398
 Ti      7.87938751      2.21654795      1.50449459
 Ti     14.26435963      2.25044316      1.56424689
 Ti      7.88194223      5.18012027      1.53501677
 Ti     14.25843847      5.14007993      1.57175638
 Ti      7.88122834      8.10580506      1.54062249
 Ti     14.25683498      8.09543656      1.46856889
 Ti      7.88244656     14.01639491      1.50523760
 Ti     14.20443934     14.02952492      1.49767142
 Ti      7.87969977     11.04916404      1.52340856
 Ti     14.25724374     11.06667810      1.50647124
 Ti      7.88388813     16.97407711      1.51632627
 Ti     14.21991443     17.01250166      1.47522382
 Ti      4.72826689      0.72357055      1.92787299
 Ti      4.71341054      3.68079992      1.91197293
 Ti      4.72733454      6.63512546      1.89710659
 Ti      4.71851055     12.55252497      1.91860068
 Ti      4.71933984      9.60347686      1.91450969
 Ti      4.70110374     15.50022405      1.91039521
 Ti     11.04393546      0.72634095      1.92780833
 Ti     17.39034542      0.72353837      1.75949396
 Ti     11.09072516      3.65737402      1.60331947
 Ti     17.38946564      3.69209822      1.76072095
 Ti     11.04245473      6.63303537      1.83120836
 Ti     17.38360174      6.64933388      1.77231712
 Ti     11.03214580     12.54927627      1.92825220
 Ti     17.34996172     12.54941226      1.76149544
 Ti     11.09879345      9.61539367      1.61267500
 Ti     17.40311510      9.59604503      1.77098970
 Ti     11.05594873     15.50799227      1.90767818
 Ti     17.33649886     15.50081847      1.75667477
  O      1.65023129      0.71737719      2.89952567
  O      1.65860112      3.69264153      2.89033626
  O      1.65715968      6.62851581      2.89134817
  O      1.65974122     12.53723528      2.89217586
  O      1.65641935      9.60118891      2.88842393
  O      1.65840789     15.50664075      2.89573033
  O      7.87638845      0.72077881      2.95432250
  O     14.25743665      0.71933244      2.95468876
  O      7.88093420      3.69279621      2.95725098
  O     14.25663269      3.69779066      2.97779517
  O      7.88292996      6.61893734      2.96533543
  O     14.26128376      6.68260672      2.95271048
  O      7.88235729     12.53666373      2.94728418
  O     14.26164160     12.52734561      2.95147055
  O      7.88396461      9.60191700      2.96304234
  O     14.25790104      9.60535973      2.95451705
  O      7.87903113     15.50672802      2.95460966
  O     14.26280082     15.51140357      2.95045216
  O      5.96584077      2.20838748      1.68356593
  O      5.96185734      5.14057867      1.67779468
  O      5.96687037      8.11567159      1.68104140
  O      5.95997933     14.02478783      1.68497482
  O      5.96128630     11.08415136      1.68108555
  O      5.95624339     16.95735071      1.68468024
  O     12.28967035      2.20602343      1.69747866
  O     18.64746235      2.20676733      1.83171790
  O     12.28705744      5.18148696      1.75562979
  O     18.64039727      5.18038029      1.82736952
  O     12.28894246      8.11323971      1.75568221
  O     18.65569562      8.11736640      1.83048518
  O     12.28718278     14.01937746      1.76180245
  O     18.61330095     14.02370288      1.83437600
  O     12.28865348     11.08616415      1.69244243
  O     18.63302052     11.09102890      1.83141179
  O     12.28955708     16.99434875      1.75967234
  O     18.61942873     16.95007124      1.83416312
  O      3.47296544      2.20315698      1.68808876
  O      3.47675223      5.17297588      1.68373693
  O      3.47488108      8.11346922      1.68569961
  O      3.46663009     14.01893516      1.68292733
  O      3.47364631     11.08727522      1.68418241
  O      3.47007684     16.99641740      1.68498454
  O      9.78935245      2.21356728      1.68276262
  O     16.14944732      2.20629560      1.53163414
  O      9.80260154      5.14111085      1.68247800
  O     16.14682004      5.18648471      1.52972581
  O      9.79511865      8.11737707      1.68452083
  O     16.14754996      8.12100928      1.52632957
  O      9.78676804     14.02209375      1.68969046
  O     16.11867802     14.02165048      1.52813178
  O      9.79420184     11.04379341      1.68066198
  O     16.14339509     11.03949652      1.52420032
  O      9.78895406     16.99081073      1.69068246
  O     16.13395127     17.00006232      1.53021024
  O      1.42612774      0.71801831      0.31635128
  O      1.42769761      3.68525485      0.31506835
  O      1.42684124      6.62724610      0.31597399
  O      1.43122213     12.54807588      0.30973626
  O      1.42764994      9.60520849      0.31307411
  O      1.43056514     15.50404584      0.31439811
  O      7.87059078      0.72928633      0.38259496
  O     14.17846739      0.77543040      0.39371755
  O      7.87666832      3.69374790      0.37618849
  O     14.18042156      3.70164853      0.39751780
  O      7.87755753      6.63072415      0.38033850
  O     14.18018817      6.61926442      0.38910041
  O      7.87256807     12.53291477      0.38297531
  O     14.18023153     12.53854437      0.38760438
  O      7.87382072      9.58535320      0.38260518
  O     14.17516303      9.59691284      0.37686517
  O      7.87045391     15.50514748      0.38484329
  O     14.17604815     15.51008996      0.38508507
 Ti      1.21202878      0.71942337     -1.75752175
 Ti      1.21975963      3.67805472     -1.74110369
 Ti      1.22111716      6.63676035     -1.75533981
 Ti      1.22849042     12.55412208     -1.76041713
 Ti      1.22816291      9.59460746     -1.76515972
 Ti      1.22709747     15.51555674     -1.75892704
 Ti      7.81592619      0.70815691     -1.75287415
 Ti     14.38158119      0.71494161     -1.74474248
 Ti      7.80441092      3.67854378     -1.75257935
 Ti     14.37667801      3.68492053     -1.74500898
 Ti      7.81736303      6.63892084     -1.77625323
 Ti     14.39331679      6.64344134     -1.77549943
 Ti      7.83696388     12.55658465     -1.73913837
 Ti     14.41282109     12.55049553     -1.76073407
 Ti      7.83299588      9.59648136     -1.75768511
 Ti     14.39561168      9.59560913     -1.76648022
 Ti      7.81589198     15.51260085     -1.75790650
 Ti     14.40934091     15.51010728     -1.75630241
 Ti      4.52199207      2.19050397     -1.59161227
 Ti      4.52373824      5.15426536     -1.55230957
 Ti      4.52843688      8.11879900     -1.54955447
 Ti      4.52242957     14.02788300     -1.58772473
 Ti      4.53079138     11.07968169     -1.59126437
 Ti      4.51358792     17.00203362     -1.57907569
 Ti     11.08823270      2.18916184     -1.58733264
 Ti     17.65604673      2.19783817     -1.55248141
 Ti     11.08432363      5.15913192     -1.58883355
 Ti     17.66893902      5.16127300     -1.56595475
 Ti     11.08575948      8.12733818     -1.56890861
 Ti     17.68745030      8.12028738     -1.56060303
 Ti     11.11629116     14.03082356     -1.56258642
 Ti     17.68818458     14.03100085     -1.55812337
 Ti     11.09881007     11.08605676     -1.56207204
 Ti     17.69462097     11.07650451     -1.55489374
 Ti     11.10410228     16.98111534     -1.56242844
 Ti     17.67622831     16.99175535     -1.55176830
 Ti      1.30369970      2.19477698     -5.04772806
 Ti      1.31326858      5.12839073     -5.06048784
 Ti      1.30359635      8.09782824     -5.06656126
 Ti      1.29820627     14.00489532     -5.04681690
 Ti      1.30725828     11.07251972     -5.06745828
 Ti      1.18973891     16.97985252     -5.06112726
 Ti      7.88664190      2.17917051     -5.02767245
 Ti     14.46226053      2.18925818     -5.03217217
 Ti      7.90023798      5.11224747     -5.08518336
 Ti     14.48015323      5.11228181     -5.08395591
 Ti      7.89220098      8.10050586     -5.10119657
 Ti     14.47471673      8.10258285     -5.09878726
 Ti      7.90136460     14.00015542     -5.07435167
 Ti     14.48080143     14.05402072     -5.10816406
 Ti      7.90055760     11.08069982     -5.06893140
 Ti     14.49247153     11.08398312     -5.09432306
 Ti      7.79144382     16.97928002     -5.08718989
 Ti     14.46501303     16.99934982     -5.08067258
 Ti      4.50271475      0.67853286     -4.94553993
 Ti      4.59738169      3.66118026     -4.86025121
 Ti      4.58795066      6.64821928     -4.84268471
 Ti      4.60536881     12.54970432     -4.94445295
 Ti      4.55390161      9.59821891     -4.86271729
 Ti      4.49358231     15.51842562     -4.83720531
 Ti     11.07892972      0.67118858     -4.85049841
 Ti     17.67039963      0.74986841     -4.84503371
 Ti     11.18252030      3.65473495     -4.85592691
 Ti     17.76770073      3.67433079     -4.85125511
 Ti     11.15972404      6.63934225     -4.84267761
 Ti     17.67063633      6.63780116     -4.84905131
 Ti     11.17112152     12.54017942     -4.85760201
 Ti     17.76086193     12.53997692     -4.85494921
 Ti     11.16798488      9.57195295     -4.84076381
 Ti     17.76496603      9.55830793     -4.84740701
 Ti     11.15998408     15.52326962     -4.85603701
 Ti     17.68720513     15.52292102     -4.85539531
  O      4.50839834      0.71926992     -0.34010255
  O      4.51180337      3.65916205     -0.33721896
  O      4.51887021      6.64521145     -0.32875073
  O      4.51161413     12.54452216     -0.34718719
  O      4.51399177      9.60207771     -0.33527885
  O      4.50858683     15.51999133     -0.34330149
  O     11.09212688      0.71909360     -0.33393099
  O     17.67306178      0.71960864     -0.32624871
  O     11.08613898      3.66660444     -0.33859022
  O     17.67187301      3.67579707     -0.33129425
  O     11.08687446      6.64625509     -0.33282806
  O     17.67882754      6.64937818     -0.33545907
  O     11.09791677     12.54805853     -0.32934449
  O     17.68737917     12.54486418     -0.32962540
  O     11.08851999      9.59698890     -0.33086711
  O     17.68149603      9.59505575     -0.33078478
  O     11.10075215     15.51551655     -0.32912311
  O     17.68061647     15.52098124     -0.32755178
  O      2.52847458      2.19707998     -1.67679718
  O      2.52832193      5.15681189     -1.59992168
  O      2.53206906      8.11526864     -1.59912302
  O      2.53200488     14.03278665     -1.67630701
  O      2.53590867     11.07698556     -1.67230927
  O      2.52677125     17.00029427     -1.67740184
  O      9.11406052      2.19884860     -1.67864147
  O     15.66027481      2.20128230     -1.60682690
  O      9.11371744      5.15178411     -1.67959564
  O     15.68312353      5.15606203     -1.67034020
  O      9.11588751      8.11405535     -1.67463941
  O     15.69644398      8.11745240     -1.67484631
  O      9.12073918     14.04147867     -1.59814875
  O     15.69885201     14.03604208     -1.59316166
  O      9.11817370     11.07935990     -1.59758737
  O     15.69852913     11.07306338     -1.59923402
  O      9.11734449     16.99008436     -1.59691019
  O     15.68684695     16.99659036     -1.59685671
  O     -0.10072615      2.20175982     -1.60244580
  O     -0.09579378      5.15240906     -1.67670630
  O     -0.07514011      8.11249668     -1.67802483
  O     -0.07997509     14.03686181     -1.67843142
  O     -0.06251463     11.07923762     -1.67655237
  O     -0.08890155     16.99510939     -1.61109102
  O      6.53071700      2.19032508     -1.67172479
  O     13.06451304      2.19708269     -1.67898259
  O      6.52627547      5.15988572     -1.66892877
  O     13.06317794      5.16288646     -1.67592260
  O      6.53688575      8.12127107     -1.67584601
  O     13.06545909      8.11712948     -1.67680757
  O      6.53388118     14.03021317     -1.67708590
  O     13.11354058     14.03292781     -1.68743175
  O      6.54354296     11.07890128     -1.68159552
  O     13.07787612     11.07697217     -1.68239403
  O      6.51999909     16.98999569     -1.67025951
  O     13.08496487     16.98988190     -1.68200143
  O      4.53786602      0.70758103     -2.98954359
  O      4.54403684      3.67864201     -2.95059834
  O      4.54353763      6.63931244     -2.94590286
  O      4.54931403     12.55001857     -3.00414110
  O      4.54615327      9.59563606     -2.95107735
  O      4.54267882     15.51674688     -2.94921836
  O     11.04506561      0.70543087     -2.94757649
  O     17.62852426      0.71755324     -2.94208397
  O     11.12606359      3.67523189     -2.95208329
  O     17.64228330      3.67077609     -2.95163973
  O     11.04922967      6.64422526     -2.95127756
  O     17.63499851      6.63701585     -2.94918907
  O     11.04627626     12.55632668     -2.94631192
  O     17.63298724     12.55424168     -2.94694517
  O     11.04425365      9.59476593     -2.94705195
  O     17.71067856      9.59785626     -2.94637882
  O     11.11407381     15.51567955     -2.94738607
  O     17.62761844     15.51867240     -2.94770046
  O      1.16730567      0.72032719     -3.64614811
  O      1.24142946      3.67323106     -3.64559693
  O      1.25422791      6.63149921     -3.64836590
  O      1.24573761     12.55074781     -3.65661944
  O      1.24698371      9.58996293     -3.65482874
  O      1.24079256     15.51415465     -3.64850943
  O      7.84755798      0.65822843     -3.65317225
  O     14.42834009      0.70876926     -3.65114366
  O      7.75772666      3.67282632     -3.65992126
  O     14.41503644      3.67239459     -3.65396500
  O      7.84214381      6.64068554     -3.67133771
  O     14.41796467      6.63181367     -3.66446899
  O      7.92675950     12.55284276     -3.66165811
  O     14.51267915     12.55925359     -3.66583031
  O      7.92393007      9.59868971     -3.66747811
  O     14.42720808      9.60368487     -3.66342736
  O      7.85000805     15.50868029     -3.66170648
  O     14.51404225     15.51566398     -3.66595195
  O      5.75671982      2.16324301     -5.01435958
  O      5.75975303      5.15448081     -5.01530183
  O      5.76556015      8.14428322     -5.01539114
  O      5.75653567     14.03557632     -5.01636649
  O      5.78411909     11.08130282     -5.09072135
  O      5.76834411     16.97608362     -5.06744863
  O     12.34626893      2.16631666     -5.01136403
  O     18.92693223      2.16872457     -5.01182269
  O     12.35319463      5.15333855     -5.01211275
  O     18.92479343      5.15702773     -5.01288125
  O     12.38480073      8.10072512     -4.98445473
  O     18.93235633      8.05623231     -5.01259674
  O     12.35286853     14.03080392     -5.00936198
  O     18.92498483     14.03379252     -5.01470270
  O     12.37642473     11.06886562     -4.98555887
  O     18.93427013     11.04978872     -5.01564865
  O     12.37237753     16.98851532     -4.98794386
  O     18.92340113     17.02074082     -5.01352979
  O      3.22044698      2.16860736     -5.01483320
  O      3.22535877      5.15561492     -5.01428870
  O      3.22541749      8.14656077     -5.01556500
  O      3.21913862     14.03265332     -5.01720782
  O      3.22122825     11.05180552     -5.01514675
  O      3.19055941     16.98232112     -4.99293827
  O      9.80662525      2.17046481     -5.01076665
  O     16.39100653      2.17423529     -5.01482192
  O      9.80898175      5.15497252     -5.01507870
  O     16.39253663      5.14959923     -5.01645290
  O      9.91779221      8.13950322     -5.26757440
  O     16.39480123      8.14363750     -5.01513968
  O      9.93210408     14.03336686     -5.19536888
  O     16.50904620     14.03254601     -5.20296988
  O      9.94031990     11.07440600     -5.19705723
  O     16.52457610     11.06721736     -5.19701748
  O      9.89109481     16.97561302     -5.19278317
  O     16.48915131     16.99946280     -5.19553072
  O      1.25088733      0.71851802     -6.18411049
  O      1.24511498      3.66782190     -6.18930110
  O      1.25127594      6.62532430     -6.18717196
  O      1.25087407     12.55127117     -6.19242414
  O      1.24291261      9.58949157     -6.18831295
  O      1.24441005     15.50623474     -6.18118684
  O      7.75313584      0.71934483     -6.18526678
  O     14.41859379      0.72195880     -6.18694327
  O      7.83046563      3.64396538     -6.19141794
  O     14.34234357      3.65447390     -6.19246203
  O      7.75205245      6.62230557     -6.19408800
  O     14.42223371      6.61949175     -6.19834840
  O      7.75339785     12.55076102     -6.19457837
  O     14.33862573     12.56087697     -6.19719842
  O      7.82727799      9.60001139     -6.19093921
  O     14.41597948      9.59571130     -6.19876855
  O      7.75657171     15.49529594     -6.18846092
  O     14.33832771     15.52441085     -6.20041601
 Au     11.72033406      7.88158198      7.64806970
 Au      9.82369247      5.84016116      7.96422464
 Au      6.66403920      9.44581659      7.69349421
 Au     12.57112789      5.40809752      8.06505343
 Au      7.18458176      6.45976869      7.64713853
 Au      8.78701875     11.08721460      8.14425115
 Au     14.49054220      3.67531381      7.61054427
 Au      9.07217006      8.42222167      8.31315851
