#B3LYP/6-31+G(d) OPT FREQ

439, Energy = -13273.31373662 au

0 1
 Ti      1.80873837      0.83507945      5.02026941
 Ti      1.83156675      3.76803252      4.94292544
 Ti      1.78206546      6.69479082      5.01968209
 Ti      1.82812908     12.65148533      4.88575385
 Ti      1.78629876      9.67326433      4.89666822
 Ti      1.83547946     15.59433003      4.89833360
 Ti      8.16183187      0.82873558      4.65731806
 Ti     14.44334018      0.79625920      4.37455708
 Ti      8.16981720      3.77919464      4.66831889
 Ti     14.41165071      3.75438891      4.40264553
 Ti      8.17443150      6.75542845      4.78282734
 Ti     14.42324651      6.70244211      4.39587987
 Ti      8.17714124     12.64184185      4.65955010
 Ti     14.49584151     12.62335671      4.88599596
 Ti      8.11362980      9.69928751      4.71072057
 Ti     14.41718602      9.66709070      4.40130878
 Ti      8.13153499     15.59782284      4.65681742
 Ti     14.41220510     15.56449067      4.35742476
 Ti      5.03200040      2.29431004      5.32311439
 Ti      5.03564599      5.22978976      5.32423014
 Ti      4.97926610      8.17439896      5.34608868
 Ti      5.03117524     14.12532460      5.37277863
 Ti      4.96786454     11.11577971      5.29540791
 Ti      5.02553061     17.06894385      5.36319991
 Ti     11.32571760      2.21620474      5.07169623
 Ti     17.52682557      2.28305533      5.18265059
 Ti     11.30877188      4.96906265      4.59350138
 Ti     17.51596945      5.22973161      5.17659927
 Ti     11.31870842      8.42725337      4.57622015
 Ti     17.51205861      8.19446486      5.19318844
 Ti     11.32570819     14.16587113      5.05369343
 Ti     17.56537161     14.10978760      5.19698294
 Ti     11.33473604     11.19293359      5.09615830
 Ti     17.56644120     11.14905004      5.18812957
 Ti     11.32547643     17.05671036      5.05205362
 Ti     17.53938766     17.05190651      5.15960068
  O      5.03545966      0.79657864      3.83672415
  O      5.10911176      3.78673848      3.82078893
  O      5.03517462      6.76693504      3.83024203
  O      4.95847555     12.67209192      3.84035835
  O      4.95792023      9.69386155      3.82872863
  O      5.03637780     15.59154778      3.84955939
  O     11.26338317      0.79438254      3.52718234
  O     17.56148025      0.78918062      3.60483876
  O     11.26844968      3.63475458      3.43453812
  O     17.55879673      3.76861107      3.61221717
  O     11.27811110      6.69552126      3.52532006
  O     17.56538929      6.70263099      3.60933181
  O     11.26681919     12.60853892      3.57531509
  O     17.64328460     12.60895588      3.66421874
  O     11.34023921      9.76293986      3.43668775
  O     17.64184047      9.62440210      3.61906499
  O     11.27120191     15.58562881      3.52745476
  O     17.64597216     15.58791831      3.61718079
  O      5.04095346      0.84656358      6.41738046
  O      4.96509646      3.77615106      6.40497342
  O      5.04090894      6.70637929      6.41066311
  O      5.04682361      9.68621263      6.40451390
  O      5.11990111     12.60432362      6.47503089
  O      5.05150161     15.58791296      6.46080277
  O     11.41237842      0.78260083      6.16829263
  O     17.47213387      0.79819700      6.23761062
  O     11.34993351      3.79124090      6.00066521
  O     17.41684170      3.76293479      6.24384488
  O     17.41386873      6.70163613      6.24091846
  O     11.34304683     12.66943890      6.23305261
  O     17.41232607     12.61603448      6.24408732
  O     11.33880754      9.61034894      5.99965847
  O     17.40837036      9.67845157      6.24589626
  O     11.41599046     15.58744871      6.15642771
  O     17.41464987     15.58548943      6.24161906
  O      3.06664781      2.28725418      5.03879655
  O      3.06003834      5.26894964      5.03987563
  O      3.00449534      8.20768091      5.27051669
  O      3.05605534     14.09929341      5.28034952
  O      3.01400878     11.17127106      5.27815676
  O      3.05515557     17.02799661      5.26583534
  O      9.36757822      2.28485083      5.03625573
  O     15.60611349      2.28624208      4.80456664
  O      9.43555478      5.27265354      4.96477504
  O     15.59446356      5.21034461      4.80823248
  O      9.41897024      8.19073334      4.81418284
  O     15.59862259      8.19088437      4.80508388
  O      9.37799557     14.16116541      4.96615719
  O     15.66112141     14.15693056      4.72182628
  O      9.37804049     11.16934022      4.87821833
  O     15.65469289     11.09712955      4.71917413
  O      9.37375649     17.07635449      4.97033781
  O     15.61041486     17.02594798      4.80109239
  O      0.56303213      2.28963104      5.12086998
  O      0.55642997      5.21634711      5.12345697
  O      0.56725498      8.25073287      5.27829437
  O      0.62208369     14.10361592      5.28577695
  O      0.61496895     11.17391931      5.28412974
  O      0.61639386     17.01452224      5.27808594
  O      6.99537832      2.29821993      5.12743107
  O     13.24529645      2.27466987      4.79886878
  O      7.01506461      5.20832304      5.19695777
  O     13.20533281      5.26879941      4.86904101
  O      6.94848119      8.21167936      5.03472309
  O     13.21056997      8.12568473      4.87292963
  O      6.99034120     14.10950446      5.12263003
  O     13.23691402     14.09818285      4.72243179
  O      6.93844184     11.17733904      4.95709294
  O     13.23964176     11.12309541      4.80155848
  O      6.99390024     17.08277344      5.13695707
  O     13.24753492     17.07036072      4.79117924
 Ti      1.74155164      2.34472642      1.75618890
 Ti      1.74477780      5.27587519      1.75808348
 Ti      1.74447171      8.18748598      1.74719385
 Ti      1.78750892     14.18616285      1.67817748
 Ti      1.76500413     11.18094207      1.67508744
 Ti      1.77324118     17.17007831      1.74205159
 Ti      8.02345471      2.30922515      1.42784339
 Ti     14.40495866      2.22617024      1.13890913
 Ti      8.03772066      5.29196944      1.46557816
 Ti     14.40781950      5.21797147      1.13288348
 Ti      8.05006223      8.18958509      1.51929630
 Ti     14.42195934      8.22255424      1.10135531
 Ti      8.08787228     14.09462412      1.43378828
 Ti     14.41130068     13.98153359      1.25748789
 Ti      8.04559309     11.12227388      1.45176088
 Ti     14.42380249     11.20792279      1.26818814
 Ti      8.06920003     17.06467168      1.44783241
 Ti     14.41911976     16.95324708      1.08155803
 Ti      4.88132843      0.83804386      2.01662214
 Ti      4.91397625      3.79079669      2.00098628
 Ti      4.89078634      6.75111968      2.00866011
 Ti      4.90707226     12.66736454      2.01617365
 Ti      4.90864032      9.70383825      1.98203443
 Ti      4.96363502     15.60997269      2.00988030
 Ti     11.22711288      0.78828077      1.69577569
 Ti     17.49765287      0.79076973      1.80291208
 Ti     11.20875428      3.71662089      1.36654425
 Ti     17.51470658      3.74714798      1.82991801
 Ti     11.24749456      6.69853443      1.60980012
 Ti     17.50589719      6.70227691      1.82387034
 Ti     11.25343731     12.61161917      1.76076445
 Ti     17.51207681     12.62096220      1.87112719
 Ti     11.24824801      9.67990134      1.37839572
 Ti     17.55672242      9.66013212      1.83126988
 Ti     11.27845853     15.57284601      1.68093625
 Ti     17.56572874     15.57208014      1.82181062
  O      1.66063551      0.79453264      3.13325224
  O      1.65113071      3.78556976      3.11118433
  O      1.65181530      6.77378673      3.12824073
  O      1.72644167     12.67299021      3.11536016
  O      1.65764273      9.69673956      3.11982034
  O      1.72320150     15.59356357      3.11874855
  O      8.11573124      0.85320668      2.87561417
  O     14.42244662      0.79936859      2.59984886
  O      8.11138407      3.77945976      2.88318089
  O     14.41234808      3.76756914      2.62815175
  O      8.11000810      6.69918724      2.89128032
  O     14.41381997      6.68730302      2.62828136
  O      8.11962493     12.66945414      2.87290104
  O     14.41887536     12.59845720      2.57227622
  O      8.11251365      9.68594101      2.87854939
  O     14.40866472      9.61547777      2.63114799
  O      8.11245546     15.59363804      2.87693734
  O     14.41393705     15.58953819      2.57631096
  O      6.12565535      2.29456411      1.67979333
  O      6.13032770      5.27960912      1.67751834
  O      6.13748085      8.21319194      1.68607144
  O      6.15546624     14.10677230      1.74952038
  O      6.14239047     11.18253020      1.69119839
  O      6.14903202     17.09664255      1.74818757
  O     12.45753194      2.27278969      1.37048334
  O     18.72236077      2.27976335      1.60084621
  O     12.46395430      5.20380361      1.43343200
  O     18.72699892      5.22480420      1.59426970
  O     12.48272170      8.17757982      1.43392843
  O     18.73093786      8.18074798      1.53349054
  O     12.47023968     14.08849984      1.44814158
  O     18.75290487     14.09094263      1.60245632
  O     12.47230258     11.11720097      1.43311910
  O     18.74707292     11.17568613      1.60261795
  O     12.48399810     17.07310990      1.43777382
  O     18.74469605     17.07625659      1.59744987
  O      3.63489886      2.34312138      1.99381177
  O      3.63419900      5.27296229      1.98858794
  O      3.63818214      8.25192896      1.91947482
  O      3.66762054     14.16045068      1.90694611
  O      3.64135866     11.18153964      1.91884716
  O      3.65942403     17.07362994      1.92254361
  O      9.94893258      2.28083921      1.51522255
  O     16.29953248      2.28062722      1.36898412
  O      9.98586300      5.21257149      1.51789080
  O     16.30235102      5.21461770      1.36564845
  O     10.00001126      8.18908712      1.52413448
  O     16.30679588      8.18853141      1.43763303
  O      9.99772475     14.09558479      1.52023092
  O     16.32795955     14.10120266      1.44102347
  O      9.99573563     11.12645837      1.51903842
  O     16.32883409     11.10967879      1.44221829
  O      9.98274546     17.02436326      1.52163307
  O     16.31314957     17.01702462      1.37182756
  O      1.73179424      0.86875643      0.56379779
  O      1.72143839      3.79407549      0.57366310
  O      1.72624659      6.75560415      0.57216478
  O      1.73766747     12.67988928      0.55477814
  O      1.72533717      9.70745276      0.56676663
  O      1.73328855     15.65105953      0.56062446
  O      7.95868769      0.80919449      0.30531951
  O     14.34593637      0.78143526     -0.00447461
  O      7.95845920      3.78432169      0.30438740
  O     14.34513662      3.72117818      0.00436759
  O      8.02616213      6.75247006      0.30774807
  O     14.35364159      6.68989233      0.00014489
  O      8.02728485     12.61776580      0.30554777
  O     14.42104333     12.59174208      0.00729985
  O      8.02612004      9.67379557      0.31094386
  O     14.41489649      9.66210670      0.00749203
  O      7.96158549     15.59346576      0.31166439
  O     14.41551183     15.51507443     -0.00531932
 Ti      1.11398117      0.93139845     -1.44838000
 Ti      1.17353561      3.88945333     -1.43447414
 Ti      1.22503771      6.84770007     -1.45082430
 Ti      1.33398199     12.76405782     -1.46042221
 Ti      1.28244736      9.80498929     -1.46307812
 Ti      1.38365268     15.72507656     -1.46092028
 Ti      7.70690589      0.80637018     -1.80799234
 Ti     14.26215504      0.70004828     -2.16202909
 Ti      7.74655935      3.77651447     -1.80913179
 Ti     14.30837155      3.66967093     -2.16409341
 Ti      7.80914482      6.73623506     -1.83554604
 Ti     14.37422956      6.62747375     -2.19751590
 Ti      7.93262887     12.65267348     -1.80369068
 Ti     14.49620174     12.53331147     -2.18796330
 Ti      7.87668823      9.69308259     -1.81992850
 Ti     14.42783772      9.57916156     -2.19069329
 Ti      7.96144272     15.60861871     -1.82332689
 Ti     14.54391956     15.49254279     -2.18540789
 Ti      4.45288912      2.34519934     -1.46632022
 Ti      4.50781956      5.30848077     -1.42923803
 Ti      4.56369479      8.27249277     -1.42881119
 Ti      4.65731288     14.18081293     -1.47070783
 Ti      4.61471415     11.23290605     -1.47264979
 Ti      4.70016111     17.15467224     -1.46365586
 Ti     11.00837053      2.23074271     -1.82422979
 Ti     17.56728157      2.12626817     -2.15170807
 Ti     11.05551124      5.20033970     -1.82758147
 Ti     17.63042264      5.08904450     -2.16793614
 Ti     11.10913948      8.16807562     -1.80983352
 Ti     17.70013565      8.04729946     -2.16567466
 Ti     11.24159343     14.07015724     -1.80931699
 Ti     17.80275446     13.95712238     -2.16735627
 Ti     11.17347774     11.12612851     -1.80578805
 Ti     17.75849857     11.00295286     -2.16242869
 Ti     11.28022092     17.02022107     -1.81054190
 Ti     17.84213613     16.91764179     -2.16241365
 Ti      1.04940093      2.40579012     -4.73966060
 Ti      1.10875015      5.33880687     -4.75497211
 Ti      1.14987594      8.30797182     -4.76257108
 Ti      1.24727021     14.21425000     -4.74667393
 Ti      1.20468959     11.28215894     -4.76574069
 Ti      1.18940660     17.19063781     -4.75705176
 Ti      7.62218069      2.27677955     -5.08272951
 Ti     14.18673690      2.17359170     -5.44993029
 Ti      7.68307257      5.20920158     -5.14294577
 Ti     14.25206109      5.09588643     -5.50465810
 Ti      7.72560654      8.19715898     -5.16057270
 Ti     14.29729157      8.08584107     -5.52124983
 Ti      7.83779419     14.09576823     -5.13838342
 Ti     14.40529887     14.03629319     -5.53509334
 Ti      7.78703106     11.17675846     -5.13089339
 Ti     14.36658576     11.06649185     -5.51984839
 Ti      7.77863253     17.07634748     -5.14721408
 Ti     14.44175521     16.98145014     -5.50882437
 Ti      4.22260623      0.83463711     -4.81302465
 Ti      4.37316397      3.81518936     -4.73516498
 Ti      4.41613758      6.80194305     -4.71918559
 Ti      4.52950297     12.70227800     -4.82587020
 Ti      4.43182265      9.75209648     -4.73936434
 Ti      4.47492383     15.67245712     -4.71468769
 Ti     10.79294862      0.71398433     -5.08085651
 Ti     17.37506005      0.67910287     -5.43903016
 Ti     10.94742640      3.69530475     -5.09406877
 Ti     17.52219803      3.60145662     -5.45264604
 Ti     10.97677711      6.67985841     -5.08166111
 Ti     17.47643155      6.56615867     -5.44715582
 Ti     11.08891124     12.57962723     -5.10130157
 Ti     17.66778304     12.46590565     -5.46213249
 Ti     11.03561264      9.61189106     -5.08224853
 Ti     17.62096889      9.48460659     -5.45275133
 Ti     11.12923064     15.56246614     -5.10120244
 Ti     17.64557410     15.44967599     -5.46059283
  O      4.48302789      0.87409975     -0.21494152
  O      4.53719457      3.81349615     -0.21429786
  O      4.59611957      6.79897846     -0.20831219
  O      4.68941130     12.69754328     -0.23042940
  O      4.64178964      9.75549157     -0.21662083
  O      4.73782410     15.67262200     -0.22845514
  O     11.05609243      0.76050702     -0.57192745
  O     17.62646323      0.64765328     -0.92725136
  O     11.10059694      3.70768472     -0.57830234
  O     17.67588692      3.60342472     -0.93428272
  O     11.15294174      6.68687900     -0.57466494
  O     17.73378829      6.57644575     -0.94089599
  O     11.26575335     12.58761538     -0.57590654
  O     17.84413427     12.47090794     -0.93964929
  O     11.20548759      9.63714602     -0.57485302
  O     17.78741803      9.52163896     -0.93842776
  O     11.31967900     15.55458408     -0.57790882
  O     17.88872912     15.44669925     -0.93927876
  O      2.45811700      2.38613743     -1.44142068
  O      2.51315504      5.34541314     -1.36671536
  O      2.56786781      8.30336605     -1.36818526
  O      2.66541220     14.22002650     -1.44936992
  O      2.61864786     11.26459585     -1.44353478
  O      2.71121057     17.18718412     -1.45224136
  O      9.03262714      2.27445939     -1.80651407
  O     15.57190605      2.16410585     -2.09588954
  O      9.08306481      5.22696278     -1.80950467
  O     15.64207761      5.11806956     -2.16262452
  O      9.13649816      8.18875571     -1.80673900
  O     15.70610558      8.07879209     -2.16992120
  O      9.24759774     14.11519627     -1.73476105
  O     15.81490006     13.99644109     -2.09261624
  O      9.19407663     11.15356118     -1.73199581
  O     15.76323706     11.03390926     -2.09659773
  O      9.29503532     17.06342249     -1.73539093
  O     15.85367508     16.95675771     -2.09770560
  O     -0.16250838      2.43608971     -1.22216315
  O     -0.11088718      5.38623492     -1.29863786
  O     -0.03938483      8.34552775     -1.30315540
  O      0.05774981     14.26909698     -1.30742118
  O      0.02437123     11.31161049     -1.30444801
  O      0.10347717     17.22704215     -1.24175146
  O      6.45383521      2.31043744     -1.65710877
  O     12.97642924      2.20464120     -2.02475425
  O      6.50067432      5.27963315     -1.65614041
  O     13.02631949      5.17002700     -2.02369106
  O      6.56186357      8.24039795     -1.66569507
  O     13.07940333      8.12379248     -2.02675822
  O      6.66051410     14.14851512     -1.67088310
  O     13.22865492     14.03788721     -2.04413887
  O      6.61910612     11.19747596     -1.67386311
  O     13.14244315     11.08298339     -2.03508270
  O      6.69798244     17.10809575     -1.66536297
  O     13.25132849     16.99489331     -2.03920023
  O      4.36609597      0.86257832     -2.86196569
  O      4.42554961      3.83308214     -2.82548955
  O      4.47627621      6.79332054     -2.82283588
  O      4.58057924     12.70306470     -2.88542105
  O      4.52949317      9.74916164     -2.83020594
  O      4.62805502     15.66945303     -2.83228237
  O     10.86470002      0.74832127     -3.17898800
  O     17.43766937      0.64703022     -3.53664562
  O     10.99643718      3.71628735     -3.19002421
  O     17.50171606      3.59958017     -3.54900277
  O     10.97088533      6.68616343     -3.18704967
  O     17.54564045      6.56550455     -3.54822010
  O     11.06998363     12.59743699     -3.18604665
  O     17.64561739     12.48188622     -3.54999020
  O     11.01694229      9.63635083     -3.18461116
  O     17.67231794      9.52460109     -3.55165083
  O     11.18855191     15.55518299     -3.19292005
  O     17.69124659     15.44596963     -3.55251303
  O      0.96516746      0.93355256     -3.33166446
  O      1.09003005      3.88474112     -3.33725947
  O      1.15357898      6.84235043     -3.34279069
  O      1.24654348     12.76086885     -3.35468628
  O      1.19691834      9.80050149     -3.35090477
  O      1.29306712     15.72391899     -3.34837996
  O      7.63280061      0.75638716     -3.70710698
  O     14.20356816      0.69355586     -4.06810238
  O      7.59464139      3.77208683     -3.71099052
  O     14.24114794      3.65697122     -4.07224987
  O      7.72937743      6.73805424     -3.72911310
  O     14.29443626      6.61590329     -4.08496071
  O      7.91615949     12.64787387     -3.72823351
  O     14.49095429     12.54083220     -4.09567291
  O      7.86215999      9.69420950     -3.73183092
  O     14.35488045      9.58717391     -4.08650052
  O      7.89041640     15.60459488     -3.72610715
  O     14.54320103     15.49678035     -4.09792878
  O      5.49627790      2.29754222     -4.95194263
  O      5.55074622      5.28828405     -4.95513424
  O      5.60800615      8.27754270     -4.95762621
  O      5.70035761     14.16811712     -4.96220577
  O      5.67293752     11.21382582     -5.03591113
  O      5.75994737     17.10799755     -5.01590962
  O     12.07503402      2.18709951     -5.31242305
  O     18.64471719      2.07614512     -5.67586184
  O     12.13332643      5.17355895     -5.31563320
  O     18.69396520      5.06404187     -5.67888226
  O     12.21714268      8.11995658     -5.29181358
  O     18.75143902      7.96268579     -5.68103473
  O     12.28597223     14.04971165     -5.31905206
  O     18.84686336     13.93948633     -5.68689444
  O     12.25981432     11.08780112     -5.29452143
  O     18.80471334     10.95576571     -5.68627266
  O     12.35754512     17.00664255     -5.30080277
  O     18.89676532     16.92601829     -5.68771646
  O      2.96430939      2.34659710     -4.81252240
  O      3.02066234      5.33307658     -4.81433020
  O      3.07213768      8.32357782     -4.81769108
  O      3.16710382     14.20890534     -4.82308491
  O      3.11799036     11.22846344     -4.81906599
  O      3.19068768     17.15862150     -4.79933046
  O      9.53973845      2.23499617     -5.17174668
  O     16.11295844      2.12534101     -5.53898263
  O      9.59322945      5.21902142     -5.17826095
  O     16.16561491      5.10023740     -5.54276795
  O      9.73930655      8.20129890     -5.43845282
  O     16.21948852      8.09379195     -5.54366709
  O      9.85903643     14.09402288     -5.37125193
  O     16.42455506     13.97990612     -5.74161467
  O      9.81620887     11.13536009     -5.37132987
  O     16.38934121     11.01474855     -5.73446250
  O      9.86888712     17.03653814     -5.36845752
  O     16.45617726     16.94672339     -5.73515602
  O      0.90857858      0.93094885     -5.87037144
  O      0.95329984      3.87991576     -5.87729003
  O      1.01047937      6.83687252     -5.87756396
  O      1.11179965     12.76194812     -5.88691358
  O      1.05309323      9.80074422     -5.88030653
  O      1.15683402     15.71658162     -5.87739507
  O      7.39991228      0.81976459     -6.23018046
  O     14.05418478      0.70755581     -6.59951250
  O      7.52711893      3.74262050     -6.24262473
  O     14.02823882      3.64095059     -6.60285961
  O      7.49995962      6.72187012     -6.24304008
  O     14.15871155      6.60415364     -6.61520885
  O      7.60333010     12.64942261     -6.24773327
  O     14.17758368     12.54609702     -6.61358729
  O      7.62649236      9.69783730     -6.24611947
  O     14.20367822      9.58003931     -6.61735642
  O      7.65752431     15.59346427     -6.24385116
  O     14.22812392     15.50919701     -6.61884774
 Au     14.42434371     12.66294285      7.33660635
 Au      8.36380414      9.70861079      7.65684897
 Au      9.60833458     12.17708510      7.67564477
 Au      1.84652729      6.40531741      7.73889849
 Au      1.87387809     18.85534255      7.74006527
 Au      8.37555024      7.07671659      7.55776320
 Au      1.86009380      3.76999789      7.70603321
 Au      6.98129450     12.09887530      7.75049932

