#B3LYP/6-31+G(d) OPT FREQ

439, Energy = -13269.72278327 au

0 1
 Ti      1.57158968      0.72681219      4.67743216
 Ti      1.57716743      3.69009766      4.68380490
 Ti      1.57042834      6.63934500      4.66990859
 Ti      1.59696938     12.54569505      4.67942243
 Ti      1.56312481      9.59337091      4.67051935
 Ti      1.60436487     15.49818513      4.67732727
 Ti      7.86873006      0.72812545      4.73512177
 Ti     14.18926387      0.72675459      4.74413494
 Ti      7.88934149      3.68520407      4.74383097
 Ti     14.20831302      3.68190797      4.74817195
 Ti      7.88837157      6.63303460      4.76084263
 Ti     14.17141169      6.64039378      4.74441160
 Ti      7.88077489     12.55169618      4.73386383
 Ti     14.23088549     12.54341435      4.72955129
 Ti      7.89051228      9.59900694      4.80542229
 Ti     14.17889276      9.59887203      4.74046900
 Ti      7.89284077     15.49968198      4.73432218
 Ti     14.22802507     15.49932327      4.73619403
 Ti      4.72068403      2.17737992      5.28976388
 Ti      4.71420649      5.11045653      5.20511321
 Ti      4.71105990      8.11367564      5.18053563
 Ti      4.72565674     14.02447754      5.31587155
 Ti      4.72038814     11.08712084      5.27141551
 Ti      4.72254001     16.96205675      5.29359698
 Ti     11.03398938      2.13986186      5.29165090
 Ti     17.32622823      2.19727839      5.16578716
 Ti     11.03253198      4.94349990      4.78675498
 Ti     17.29780532      5.15184220      5.14455286
 Ti     11.02496659      8.36231232      4.83493563
 Ti     17.30361799      8.11499660      5.16979614
 Ti     11.04958660     14.07136872      5.28901466
 Ti     17.33551443     14.02665014      5.15568008
 Ti     11.03991531     11.18609091      5.25939842
 Ti     17.32595221     11.07265425      5.14016612
 Ti     11.04032788     16.96576336      5.28850169
 Ti     17.32725442     16.97120457      5.13351490
  O      4.72931424      0.71964631      3.75480692
  O      4.72115544      3.69123462      3.73900651
  O      4.71842973      6.62110363      3.68849774
  O      4.72147098     12.52894124      3.76049858
  O      4.72111979      9.60061601      3.69868529
  O      4.66029970     15.50297534      3.75594473
  O     11.03147274      0.71591927      3.76617122
  O     17.25554277      0.72084213      3.65707902
  O     11.02886387      3.55707875      3.67051685
  O     17.18465338      3.69892830      3.65873721
  O     11.02420579      6.62465812      3.75165543
  O     17.19322458      6.62609497      3.65239208
  O     11.02158765     12.53782526      3.75389287
  O     17.18486426     12.52835661      3.64829938
  O     11.02474755      9.67564241      3.62530255
  O     17.25281746      9.59598039      3.64925746
  O     11.02276264     15.51140166      3.75775758
  O     17.18597318     15.50675959      3.65200641
  O      4.72940054      0.72026516      6.38144500
  O      4.72861524      3.69561373      6.32872351
  O      4.79852752      6.62955466      6.31859395
  O      4.80782840      9.54381853      6.32341251
  O      4.72890561     12.52489742      6.38435061
  O      4.72863463     15.50166280      6.38885816
  O     11.03277571      0.70921547      6.39874095
  O     17.41209278      0.72011754      6.23722167
  O     11.03234156      3.71192243      6.24203793
  O     17.40945480      3.69282174      6.23652637
  O     17.34595206      6.63064729      6.23561877
  O     11.03472792     12.59754710      6.39382796
  O     17.41148662     12.53716377      6.23296774
  O     11.03548168      9.59960084      6.16233753
  O     17.40877350      9.59645387      6.23553378
  O     11.03193234     15.51068233      6.39348217
  O     17.41230737     15.50050000      6.23421029
  O      2.76445516      2.20702817      5.12208657
  O      2.76597343      5.18493186      5.12645495
  O      2.76878903      8.11446412      5.12108344
  O      2.75910174     14.01620170      5.19702325
  O      2.77170849     11.03400108      5.12929184
  O      2.76575481     17.00028859      5.12783786
  O      9.06969694      2.19517574      5.12646689
  O     15.35711469      2.20564660      5.19705857
  O      9.13188319      5.18768528      5.04183938
  O     15.29643521      5.17164877      5.27304788
  O      9.12292870      8.09774083      5.11528441
  O     15.30988966      8.11895781      5.20484477
  O      9.07376287     14.02404514      5.12359744
  O     15.36119491     14.02041935      5.20561529
  O      9.07255941     11.10191705      5.12184679
  O     15.35407251     11.03570155      5.20192596
  O      9.06999502     16.99401140      5.12655481
  O     15.35889959     17.00045575      5.20137164
  O      0.38913783      2.21194852      4.96305715
  O      0.38097546      5.17877051      4.96546456
  O      0.38222972      8.11084939      4.96578475
  O      0.38744102     14.01886191      4.89090225
  O      0.39353761     11.09327929      4.96311759
  O      0.39402234     16.94282531      4.96304254
  O      6.68758930      2.20857045      5.12195940
  O     12.99051878      2.20633450      5.11896617
  O      6.69398620      5.13227908      5.03931377
  O     12.92699706      5.18599998      5.03936231
  O      6.68515913      8.10949868      4.95889912
  O     12.92366528      8.10239505      5.04864210
  O      6.68205016     14.02626506      5.12268859
  O     12.98972227     14.02010787      5.04741525
  O      6.68485935     11.09403313      5.11198490
  O     12.98475780     11.10009355      5.05284675
  O      6.68425492     16.94945116      5.12314966
  O     12.99032893     16.94847250      5.11667011
 Ti      1.57476282      2.20189426      1.49688575
 Ti      1.57531352      5.15846412      1.50656716
 Ti      1.58851786      8.11430713      1.47792055
 Ti      1.56191283     14.02147909      1.50021279
 Ti      1.57658123     11.07409422      1.50050238
 Ti      1.57307271     16.96955347      1.50303090
 Ti      7.87835446      2.21397139      1.50957281
 Ti     14.25214746      2.20238187      1.50209925
 Ti      7.88072800      5.17256451      1.52259397
 Ti     14.24574620      5.16683586      1.51526480
 Ti      7.88255862      8.11542329      1.53944377
 Ti     14.26109876      8.11335410      1.50428366
 Ti      7.88070888     14.01145344      1.50122712
 Ti     14.20062601     14.02009455      1.49379760
 Ti      7.88218246     11.04452318      1.54122171
 Ti     14.25353845     11.06814838      1.50620765
 Ti      7.88236264     16.97229631      1.51595770
 Ti     14.22504005     16.97395569      1.51554188
 Ti      4.72624862      0.72106933      1.92300861
 Ti      4.71656007      3.67286441      1.89738183
 Ti      4.72392491      6.62784369      1.86830897
 Ti      4.71877988     12.55162170      1.92071363
 Ti      4.72231092      9.60237848      1.87433191
 Ti      4.70185667     15.49853254      1.91572988
 Ti     11.04699924      0.71979966      1.93165766
 Ti     17.39434900      0.71893543      1.76670539
 Ti     11.07348521      3.64522638      1.60403977
 Ti     17.35620367      3.68381352      1.76985330
 Ti     11.04992236      6.62981742      1.82165524
 Ti     17.38712153      6.63602393      1.78192051
 Ti     11.03238555     12.55037712      1.92162574
 Ti     17.34743516     12.54971177      1.77188749
 Ti     11.09594344      9.61442782      1.62941630
 Ti     17.40255550      9.59548333      1.77402620
 Ti     11.04882850     15.50662884      1.91291518
 Ti     17.33781834     15.49696081      1.76107016
  O      1.65082262      0.71973109      2.89170813
  O      1.65421246      3.69033109      2.89915752
  O      1.65566063      6.62488405      2.88481105
  O      1.65882291     12.53684361      2.89218988
  O      1.65482629      9.60028184      2.88805373
  O      1.65971894     15.50494322      2.88875480
  O      7.87608424      0.72033954      2.95417571
  O     14.25823693      0.72720937      2.95796617
  O      7.88182965      3.68581368      2.95379486
  O     14.26174841      3.69282404      2.96151254
  O      7.88427640      6.62219047      2.95356873
  O     14.26158521      6.62402198      2.95753550
  O      7.87990167     12.53398741      2.95087597
  O     14.26374203     12.52847661      2.94765979
  O      7.88258444      9.60296635      2.96798364
  O     14.25895043      9.59962270      2.95538875
  O      7.87863934     15.50681802      2.95437073
  O     14.26267074     15.50879748      2.95355653
  O      5.96620067      2.20282468      1.68101511
  O      5.96589646      5.13557395      1.67316187
  O      5.96861552      8.11213476      1.67459893
  O      5.95719835     14.02493190      1.68514476
  O      5.96004547     11.08822067      1.67652871
  O      5.95319314     16.95740787      1.68446718
  O     12.29336911      2.20209539      1.69124659
  O     18.62574336      2.21274368      1.83589058
  O     12.28836420      5.13567361      1.75602799
  O     18.61904963      5.14049357      1.83447668
  O     12.29370176      8.10710738      1.75541949
  O     18.64657102      8.10924152      1.83559684
  O     12.28801187     14.01994356      1.76128812
  O     18.61134915     14.02031956      1.83523989
  O     12.29145534     11.08960656      1.68961491
  O     18.62411831     11.09200308      1.83319610
  O     12.28946158     16.99106555      1.76108774
  O     18.61982862     16.94911547      1.83443598
  O      3.46915771      2.20123922      1.68642768
  O      3.47085997      5.13464213      1.67833506
  O      3.47049211      8.11238743      1.67976927
  O      3.46562971     14.01860352      1.68239322
  O      3.47068228     11.08997537      1.68101006
  O      3.46874353     16.99616237      1.68422073
  O      9.78554983      2.20536728      1.68049098
  O     16.13789779      2.20141690      1.53075587
  O      9.80341287      5.13705871      1.68349192
  O     16.13880878      5.17957756      1.52578210
  O      9.80298299      8.10925013      1.68189270
  O     16.14477806      8.11427212      1.52954045
  O      9.78539574     14.02216580      1.68898730
  O     16.11444328     14.01897422      1.52942978
  O      9.79568292     11.04904188      1.67758330
  O     16.14097252     11.04051246      1.52580864
  O      9.78855374     16.99078159      1.69071294
  O     16.13325134     16.99672091      1.53247734
  O      1.42411352      0.72110138      0.31657683
  O      1.42572545      3.68314192      0.31670106
  O      1.42342144      6.62306925      0.31850678
  O      1.42965629     12.54364897      0.31008534
  O      1.42539431      9.60436099      0.31472386
  O      1.42990005     15.50265347      0.31296793
  O      7.87024805      0.72664082      0.38291932
  O     14.17817812      0.72396553      0.38987187
  O      7.87703901      3.69018724      0.36825065
  O     14.18037854      3.69406046      0.38806689
  O      7.87851474      6.63108155      0.37893963
  O     14.17777092      6.62983781      0.38572704
  O      7.87245757     12.53106847      0.38531604
  O     14.17997904     12.53595315      0.38412060
  O      7.87503812      9.58912245      0.38323130
  O     14.17647905      9.58871323      0.38523725
  O      7.86978660     15.50433879      0.38409211
  O     14.17630500     15.50817037      0.38775508
 Ti      1.21202878      0.71942337     -1.75752175
 Ti      1.21975963      3.67805472     -1.74110369
 Ti      1.22111716      6.63676035     -1.75533981
 Ti      1.22849042     12.55412208     -1.76041713
 Ti      1.22816291      9.59460746     -1.76515972
 Ti      1.22709747     15.51555674     -1.75892704
 Ti      7.81592619      0.70815691     -1.75287415
 Ti     14.38158119      0.71494161     -1.74474248
 Ti      7.80441092      3.67854378     -1.75257935
 Ti     14.37667801      3.68492053     -1.74500898
 Ti      7.81736303      6.63892084     -1.77625323
 Ti     14.39331679      6.64344134     -1.77549943
 Ti      7.83696388     12.55658465     -1.73913837
 Ti     14.41282109     12.55049553     -1.76073407
 Ti      7.83299588      9.59648136     -1.75768511
 Ti     14.39561168      9.59560913     -1.76648022
 Ti      7.81589198     15.51260085     -1.75790650
 Ti     14.40934091     15.51010728     -1.75630241
 Ti      4.52199207      2.19050397     -1.59161227
 Ti      4.52373824      5.15426536     -1.55230957
 Ti      4.52843688      8.11879900     -1.54955447
 Ti      4.52242957     14.02788300     -1.58772473
 Ti      4.53079138     11.07968169     -1.59126437
 Ti      4.51358792     17.00203362     -1.57907569
 Ti     11.08823270      2.18916184     -1.58733264
 Ti     17.65604673      2.19783817     -1.55248141
 Ti     11.08432363      5.15913192     -1.58883355
 Ti     17.66893902      5.16127300     -1.56595475
 Ti     11.08575948      8.12733818     -1.56890861
 Ti     17.68745030      8.12028738     -1.56060303
 Ti     11.11629116     14.03082356     -1.56258642
 Ti     17.68818458     14.03100085     -1.55812337
 Ti     11.09881007     11.08605676     -1.56207204
 Ti     17.69462097     11.07650451     -1.55489374
 Ti     11.10410228     16.98111534     -1.56242844
 Ti     17.67622831     16.99175535     -1.55176830
 Ti      1.30369970      2.19477698     -5.04772806
 Ti      1.31326858      5.12839073     -5.06048784
 Ti      1.30359635      8.09782824     -5.06656126
 Ti      1.29820627     14.00489532     -5.04681690
 Ti      1.30725828     11.07251972     -5.06745828
 Ti      1.18973891     16.97985252     -5.06112726
 Ti      7.88664190      2.17917051     -5.02767245
 Ti     14.46226053      2.18925818     -5.03217217
 Ti      7.90023798      5.11224747     -5.08518336
 Ti     14.48015323      5.11228181     -5.08395591
 Ti      7.89220098      8.10050586     -5.10119657
 Ti     14.47471673      8.10258285     -5.09878726
 Ti      7.90136460     14.00015542     -5.07435167
 Ti     14.48080143     14.05402072     -5.10816406
 Ti      7.90055760     11.08069982     -5.06893140
 Ti     14.49247153     11.08398312     -5.09432306
 Ti      7.79144382     16.97928002     -5.08718989
 Ti     14.46501303     16.99934982     -5.08067258
 Ti      4.50271475      0.67853286     -4.94553993
 Ti      4.59738169      3.66118026     -4.86025121
 Ti      4.58795066      6.64821928     -4.84268471
 Ti      4.60536881     12.54970432     -4.94445295
 Ti      4.55390161      9.59821891     -4.86271729
 Ti      4.49358231     15.51842562     -4.83720531
 Ti     11.07892972      0.67118858     -4.85049841
 Ti     17.67039963      0.74986841     -4.84503371
 Ti     11.18252030      3.65473495     -4.85592691
 Ti     17.76770073      3.67433079     -4.85125511
 Ti     11.15972404      6.63934225     -4.84267761
 Ti     17.67063633      6.63780116     -4.84905131
 Ti     11.17112152     12.54017942     -4.85760201
 Ti     17.76086193     12.53997692     -4.85494921
 Ti     11.16798488      9.57195295     -4.84076381
 Ti     17.76496603      9.55830793     -4.84740701
 Ti     11.15998408     15.52326962     -4.85603701
 Ti     17.68720513     15.52292102     -4.85539531
  O      4.50839834      0.71926992     -0.34010255
  O      4.51180337      3.65916205     -0.33721896
  O      4.51887021      6.64521145     -0.32875073
  O      4.51161413     12.54452216     -0.34718719
  O      4.51399177      9.60207771     -0.33527885
  O      4.50858683     15.51999133     -0.34330149
  O     11.09212688      0.71909360     -0.33393099
  O     17.67306178      0.71960864     -0.32624871
  O     11.08613898      3.66660444     -0.33859022
  O     17.67187301      3.67579707     -0.33129425
  O     11.08687446      6.64625509     -0.33282806
  O     17.67882754      6.64937818     -0.33545907
  O     11.09791677     12.54805853     -0.32934449
  O     17.68737917     12.54486418     -0.32962540
  O     11.08851999      9.59698890     -0.33086711
  O     17.68149603      9.59505575     -0.33078478
  O     11.10075215     15.51551655     -0.32912311
  O     17.68061647     15.52098124     -0.32755178
  O      2.52847458      2.19707998     -1.67679718
  O      2.52832193      5.15681189     -1.59992168
  O      2.53206906      8.11526864     -1.59912302
  O      2.53200488     14.03278665     -1.67630701
  O      2.53590867     11.07698556     -1.67230927
  O      2.52677125     17.00029427     -1.67740184
  O      9.11406052      2.19884860     -1.67864147
  O     15.66027481      2.20128230     -1.60682690
  O      9.11371744      5.15178411     -1.67959564
  O     15.68312353      5.15606203     -1.67034020
  O      9.11588751      8.11405535     -1.67463941
  O     15.69644398      8.11745240     -1.67484631
  O      9.12073918     14.04147867     -1.59814875
  O     15.69885201     14.03604208     -1.59316166
  O      9.11817370     11.07935990     -1.59758737
  O     15.69852913     11.07306338     -1.59923402
  O      9.11734449     16.99008436     -1.59691019
  O     15.68684695     16.99659036     -1.59685671
  O     -0.10072615      2.20175982     -1.60244580
  O     -0.09579378      5.15240906     -1.67670630
  O     -0.07514011      8.11249668     -1.67802483
  O     -0.07997509     14.03686181     -1.67843142
  O     -0.06251463     11.07923762     -1.67655237
  O     -0.08890155     16.99510939     -1.61109102
  O      6.53071700      2.19032508     -1.67172479
  O     13.06451304      2.19708269     -1.67898259
  O      6.52627547      5.15988572     -1.66892877
  O     13.06317794      5.16288646     -1.67592260
  O      6.53688575      8.12127107     -1.67584601
  O     13.06545909      8.11712948     -1.67680757
  O      6.53388118     14.03021317     -1.67708590
  O     13.11354058     14.03292781     -1.68743175
  O      6.54354296     11.07890128     -1.68159552
  O     13.07787612     11.07697217     -1.68239403
  O      6.51999909     16.98999569     -1.67025951
  O     13.08496487     16.98988190     -1.68200143
  O      4.53786602      0.70758103     -2.98954359
  O      4.54403684      3.67864201     -2.95059834
  O      4.54353763      6.63931244     -2.94590286
  O      4.54931403     12.55001857     -3.00414110
  O      4.54615327      9.59563606     -2.95107735
  O      4.54267882     15.51674688     -2.94921836
  O     11.04506561      0.70543087     -2.94757649
  O     17.62852426      0.71755324     -2.94208397
  O     11.12606359      3.67523189     -2.95208329
  O     17.64228330      3.67077609     -2.95163973
  O     11.04922967      6.64422526     -2.95127756
  O     17.63499851      6.63701585     -2.94918907
  O     11.04627626     12.55632668     -2.94631192
  O     17.63298724     12.55424168     -2.94694517
  O     11.04425365      9.59476593     -2.94705195
  O     17.71067856      9.59785626     -2.94637882
  O     11.11407381     15.51567955     -2.94738607
  O     17.62761844     15.51867240     -2.94770046
  O      1.16730567      0.72032719     -3.64614811
  O      1.24142946      3.67323106     -3.64559693
  O      1.25422791      6.63149921     -3.64836590
  O      1.24573761     12.55074781     -3.65661944
  O      1.24698371      9.58996293     -3.65482874
  O      1.24079256     15.51415465     -3.64850943
  O      7.84755798      0.65822843     -3.65317225
  O     14.42834009      0.70876926     -3.65114366
  O      7.75772666      3.67282632     -3.65992126
  O     14.41503644      3.67239459     -3.65396500
  O      7.84214381      6.64068554     -3.67133771
  O     14.41796467      6.63181367     -3.66446899
  O      7.92675950     12.55284276     -3.66165811
  O     14.51267915     12.55925359     -3.66583031
  O      7.92393007      9.59868971     -3.66747811
  O     14.42720808      9.60368487     -3.66342736
  O      7.85000805     15.50868029     -3.66170648
  O     14.51404225     15.51566398     -3.66595195
  O      5.75671982      2.16324301     -5.01435958
  O      5.75975303      5.15448081     -5.01530183
  O      5.76556015      8.14428322     -5.01539114
  O      5.75653567     14.03557632     -5.01636649
  O      5.78411909     11.08130282     -5.09072135
  O      5.76834411     16.97608362     -5.06744863
  O     12.34626893      2.16631666     -5.01136403
  O     18.92693223      2.16872457     -5.01182269
  O     12.35319463      5.15333855     -5.01211275
  O     18.92479343      5.15702773     -5.01288125
  O     12.38480073      8.10072512     -4.98445473
  O     18.93235633      8.05623231     -5.01259674
  O     12.35286853     14.03080392     -5.00936198
  O     18.92498483     14.03379252     -5.01470270
  O     12.37642473     11.06886562     -4.98555887
  O     18.93427013     11.04978872     -5.01564865
  O     12.37237753     16.98851532     -4.98794386
  O     18.92340113     17.02074082     -5.01352979
  O      3.22044698      2.16860736     -5.01483320
  O      3.22535877      5.15561492     -5.01428870
  O      3.22541749      8.14656077     -5.01556500
  O      3.21913862     14.03265332     -5.01720782
  O      3.22122825     11.05180552     -5.01514675
  O      3.19055941     16.98232112     -4.99293827
  O      9.80662525      2.17046481     -5.01076665
  O     16.39100653      2.17423529     -5.01482192
  O      9.80898175      5.15497252     -5.01507870
  O     16.39253663      5.14959923     -5.01645290
  O      9.91779221      8.13950322     -5.26757440
  O     16.39480123      8.14363750     -5.01513968
  O      9.93210408     14.03336686     -5.19536888
  O     16.50904620     14.03254601     -5.20296988
  O      9.94031990     11.07440600     -5.19705723
  O     16.52457610     11.06721736     -5.19701748
  O      9.89109481     16.97561302     -5.19278317
  O     16.48915131     16.99946280     -5.19553072
  O      1.25088733      0.71851802     -6.18411049
  O      1.24511498      3.66782190     -6.18930110
  O      1.25127594      6.62532430     -6.18717196
  O      1.25087407     12.55127117     -6.19242414
  O      1.24291261      9.58949157     -6.18831295
  O      1.24441005     15.50623474     -6.18118684
  O      7.75313584      0.71934483     -6.18526678
  O     14.41859379      0.72195880     -6.18694327
  O      7.83046563      3.64396538     -6.19141794
  O     14.34234357      3.65447390     -6.19246203
  O      7.75205245      6.62230557     -6.19408800
  O     14.42223371      6.61949175     -6.19834840
  O      7.75339785     12.55076102     -6.19457837
  O     14.33862573     12.56087697     -6.19719842
  O      7.82727799      9.60001139     -6.19093921
  O     14.41597948      9.59571130     -6.19876855
  O      7.75657171     15.49529594     -6.18846092
  O     14.33832771     15.52441085     -6.20041601
 Au      8.52854475      4.71200378      8.02485775
 Au      9.14128133      7.41961977      8.13795281
 Au      6.61385156      6.59564652      7.73023780
 Au      9.54375833     10.12004240      8.50770325
 Au     12.08087569     10.77885990      9.06948773
 Au      7.10827357      9.43768416      7.65830409
 Au     11.81399472      8.17750032      8.40957670
 Au     11.27694941      5.73346056      7.53024855

