439
Energy = -13272.35620303 au
 Ti      1.79752863      0.66916678      5.39829736
 Ti      1.84729218      3.61442626      5.38372561
 Ti      1.80387676      6.55129728      5.37732324
 Ti      1.76077920     12.49448424      5.38498361
 Ti      1.75256970      9.51614211      5.38960574
 Ti      1.80767108     15.43471666      5.40512326
 Ti      8.18591370      0.68895952      4.83033058
 Ti     14.51489248      0.76167976      4.43942475
 Ti      8.26851926      3.65479103      4.82818425
 Ti     14.46242410      3.73227806      4.47714814
 Ti      8.20915031      6.62555474      4.86961338
 Ti     14.49531921      6.66960730      4.44952249
 Ti      8.14797900     12.51989272      4.85246712
 Ti     14.50925313     12.56375897      4.44542484
 Ti      8.12148759      9.58619298      4.93822371
 Ti     14.42914154      9.60257368      4.48721017
 Ti      8.18724371     15.46116679      4.84107690
 Ti     14.50251770     15.51632130      4.44383337
 Ti      5.10387079      2.12287217      5.57943024
 Ti      5.10278157      5.07296778      5.65859328
 Ti      4.99114704      8.08781240      5.61102422
 Ti      5.03803446     14.03095236      5.69367782
 Ti      4.96113543     11.02546504      5.62856708
 Ti      5.05097971     17.01863657      5.57922167
 Ti     11.38583538      2.10958279      4.95450642
 Ti     17.48601894      2.20505347      5.68194823
 Ti     11.34922036      4.91234443      4.59060398
 Ti     17.49475541      5.14256016      5.66622809
 Ti     11.29504712      8.37764004      4.56996323
 Ti     17.47063189      8.09348335      5.67223173
 Ti     11.35556342     14.08381684      5.03751516
 Ti     17.46243008     14.00725076      5.67964955
 Ti     11.34418117     11.17727317      5.01513375
 Ti     17.43482613     11.03265763      5.68112107
 Ti     11.38149507     16.99082186      4.96732594
 Ti     17.47617016     16.96745318      5.67667050
  O      5.03224846      0.63092966      4.17135645
  O      5.03518899      3.61411240      4.14544325
  O      4.96183025      6.53897351      4.14983667
  O      4.95498070     12.44369566      4.15954185
  O      4.87841184      9.50882267      4.15324833
  O      4.95491421     15.36355144      4.16203933
  O     11.33857189      0.77818392      3.45208743
  O     17.56819514      0.71646524      4.13478195
  O     11.33787765      3.62127622      3.36844375
  O     17.63674425      3.69230523      4.14619347
  O     11.34068448      6.67590005      3.51658715
  O     17.56370328      6.62242583      4.09367008
  O     11.26605107     12.59111403      3.52266565
  O     17.47549215     12.51408012      4.10179139
  O     11.25892409      9.68950845      3.38116628
  O     17.55412697      9.59738074      4.15145378
  O     11.26371094     15.50783980      3.51371649
  O     17.49525798     15.50168086      4.09202467
  O      5.18825903      0.69784576      6.72331532
  O      5.19135188      3.62437300      6.71317482
  O      5.28076180      6.60779498      6.72453536
  O      5.18694005      9.53027640      6.70845321
  O      5.19684028     12.45161981      6.78226926
  O      5.12212572     15.44762840      6.72259795
  O     11.56986066      0.70595009      6.08204164
  O     17.32703307      0.72162286      6.72819566
  O     11.49694716      3.70431524      5.92471897
  O     17.32259136      3.68840623      6.73102377
  O     17.32746519      6.61609528      6.72186274
  O     11.50538747     12.58967670      6.16249389
  O     17.32944950     12.52473230      6.72390959
  O     11.49201581      9.60025469      5.93631096
  O     17.32644055      9.55269003      6.73910083
  O     11.57542076     15.52486483      6.08628260
  O     17.32663315     15.49039917      6.72516767
  O      3.04782789      2.13732850      5.68943329
  O      3.06447799      5.11117584      5.69230322
  O      3.00680564      8.04165468      5.76145495
  O      3.00091653     13.94327150      5.75951847
  O      2.99249909     11.01678432      5.75784519
  O      3.00604421     16.92899783      5.75462588
  O      9.44718533      2.13554876      5.12659841
  O     15.62577868      2.27462234      5.04528172
  O      9.50430594      5.18743308      5.11879757
  O     15.60488163      5.18628957      5.04972732
  O      9.46469439      8.04246478      5.04142768
  O     15.58056257      8.11686967      5.11678926
  O      9.41490404     14.01106724      5.13136846
  O     15.59194522     14.02389665      5.12817170
  O      9.39319125     11.09912336      5.03165732
  O     15.52534694     11.03435116      5.19947034
  O      9.43662148     16.94250302      5.12464294
  O     15.59282798     17.00358031      5.12267835
  O      0.56766935      2.18694441      5.76093263
  O      0.57262197      5.11259391      5.75864229
  O      0.55131540      8.04246371      5.75605566
  O      0.54111105     13.99572596      5.75191165
  O      0.54340151     11.01774726      5.75643167
  O      0.55161213     16.93002100      5.75602668
  O      7.08017597      2.19990798      5.34866430
  O     13.31738417      2.20881545      4.71794504
  O      7.07182445      5.08672061      5.28044220
  O     13.23634373      5.26901612      4.80165130
  O      6.96314915      8.10021010      5.11104423
  O     13.22525186      8.10581411      4.73053485
  O      7.00755296     14.01458817      5.35005056
  O     13.29057576     14.01875001      4.63589536
  O      6.93644958     11.02341233      5.12110592
  O     13.24448662     11.11286258      4.56659229
  O      7.02976628     16.92749585      5.35308832
  O     13.30169481     16.99173456      4.57223953
 Ti      1.87124174      1.99903098      2.19441449
 Ti      1.83377051      4.96244393      2.17653900
 Ti      1.78000558      7.92960883      2.16882145
 Ti      1.71538966     13.83046462      2.15831805
 Ti      1.72283625     10.88437261      2.18883304
 Ti      1.78894395     16.76702898      2.22559680
 Ti      8.19655570      2.13315390      1.59297351
 Ti     14.58631324      2.29802987      1.14079807
 Ti      8.11967767      5.12866872      1.59527146
 Ti     14.57210730      5.26799750      1.14422569
 Ti      8.08101875      8.07315390      1.67209795
 Ti     14.55199405      8.20442451      1.16054869
 Ti      8.03455602     13.92422137      1.58367696
 Ti     14.49619729     14.12649533      1.12380663
 Ti      8.05369856     10.96328152      1.67199943
 Ti     14.51239899     11.15893114      1.13221950
 Ti      8.11749540     16.87656287      1.64340404
 Ti     14.53523950     17.06665016      1.18435902
 Ti      5.04547097      0.57514064      1.99830923
 Ti      5.02099203      3.54233313      2.30392392
 Ti      4.97186246      6.51365916      2.32446621
 Ti      4.88933782     12.42250717      2.33337533
 Ti      4.88961105      9.47598460      2.29653232
 Ti      4.88376629     15.35673502      2.34096119
 Ti     11.41270801      0.73221668      1.51708545
 Ti     17.57725409      0.72450669      2.34891163
 Ti     11.35751398      3.70746987      1.35606385
 Ti     17.55404183      3.67264076      2.36264581
 Ti     11.33457406      6.67853270      1.60076701
 Ti     17.55251130      6.62029444      2.31939645
 Ti     11.26072729     12.57323932      1.69608975
 Ti     17.37645270     12.53322255      2.31824964
 Ti     11.27738503      9.64002873      1.38870728
 Ti     17.47366774      9.57533836      2.35454802
 Ti     11.25986719     15.50225819      1.68533914
 Ti     17.48375862     15.49459065      2.31393268
  O      1.73168262      0.61714356      3.60450289
  O      1.80414565      3.55122332      3.59669479
  O      1.73516593      6.52460992      3.59211065
  O      1.71473452     12.43704582      3.60274354
  O      1.72867368      9.45314452      3.60590484
  O      1.73470132     15.36380474      3.60702872
  O      8.25781507      0.69531629      3.04227933
  O     14.57639738      0.78689818      2.64240101
  O      8.27166525      3.62226157      3.04075822
  O     14.58171092      3.77078699      2.68910466
  O      8.19766430      6.54814183      3.04142229
  O     14.57522122      6.69268336      2.64367089
  O      8.11693565     12.52446284      3.04015976
  O     14.73500008     12.59115400      2.64475364
  O      8.20174576      9.53200718      3.03727152
  O     14.65295813      9.61146093      2.70334179
  O      8.19542959     15.43212504      3.04450777
  O     14.65222386     15.51174556      2.64504153
  O      6.23651378      2.06611566      2.00878541
  O      6.21497197      5.03938016      2.00432260
  O      6.14990650      8.02730268      2.00445798
  O      6.08510896     13.92134128      1.92238297
  O      6.12366460     10.94492822      1.99783093
  O      6.20398825     16.78607593      2.07805713
  O     12.67918372      2.27687008      1.37246410
  O     18.78049758      2.18593562      2.16075113
  O     12.62569078      5.20457037      1.36745666
  O     18.76826837      5.10962898      2.15649483
  O     12.60147875      8.18873408      1.36977443
  O     18.74454275      8.10913327      2.16122547
  O     12.57148597     14.03239523      1.37361007
  O     18.68273017     13.93988666      2.17010359
  O     12.58882667     11.10580505      1.37381368
  O     18.68268878     11.02777696      2.16862859
  O     12.61874952     16.93276301      1.43798233
  O     18.75927839     16.93795627      2.16236891
  O      3.72151720      2.05276693      2.23865536
  O      3.69873186      5.01624613      2.23507003
  O      3.63971364      7.95326964      2.24093463
  O      3.59767631     13.86668648      2.31285555
  O      3.60986994     10.94197352      2.30479322
  O      3.67954188     16.86526020      2.23401286
  O     10.09109736      2.20806285      1.43913370
  O     16.46872308      2.21403435      1.60232853
  O     10.08007753      5.18719881      1.51598652
  O     16.47051238      5.18492671      1.53372234
  O     10.02862061      8.11141019      1.52384167
  O     16.46286785      8.10937943      1.52105065
  O      9.98558161     14.01921285      1.59468839
  O     16.45027811     14.07928466      1.44018104
  O     10.00018395     11.09488447      1.52679142
  O     16.44965122     11.03273118      1.44742989
  O     10.06214083     17.01789134      1.52105960
  O     16.45186758     17.01351692      1.59529350
  O      1.80137629      0.53934958      1.04021419
  O      1.72973944      3.47548799      1.03349078
  O      1.65168835      6.44529285      1.03144916
  O      1.56966729     12.35482346      1.02941203
  O      1.64261519      9.43189893      1.03001912
  O      1.56377225     15.34057589      1.02762508
  O      8.03253461      0.63576503      0.48475368
  O     14.65666139      0.80116140      0.00402436
  O      8.03459717      3.62236267      0.47306371
  O     14.65332714      3.78249299     -0.00312384
  O      7.96159536      6.59597854      0.47324216
  O     14.57741330      6.75283608     -0.01300553
  O      7.86989211     12.45070281      0.47722970
  O     14.49293969     12.61754288     -0.00903970
  O      7.94244337      9.52409388      0.47665352
  O     14.50442522      9.68192407     -0.00565134
  O      7.87652034     15.44013840      0.47667968
  O     14.49229522     15.59972353     -0.00487482
 Ti      1.57174303      0.23724085     -0.98931043
 Ti      1.41354901      3.19158305     -0.96351196
 Ti      1.24583996      6.14556359     -0.96754027
 Ti      0.91747883     12.05379615     -0.95281204
 Ti      1.08428631      9.09902020     -0.96776955
 Ti      0.74851658     15.01038360     -0.94090423
 Ti      8.13042249      0.60040240     -1.67007984
 Ti     14.65046716      0.97942640     -2.34335253
 Ti      7.95077782      3.56535086     -1.65827929
 Ti     14.47735301      3.94434107     -2.33279786
 Ti      7.79350760      6.52163453     -1.67289182
 Ti     14.32314111      6.89896391     -2.35457916
 Ti      7.48165110     12.43096447     -1.61746742
 Ti     14.00946957     12.79764153     -2.32141027
 Ti      7.64344397      9.47536085     -1.64577869
 Ti     14.15914728      9.84652681     -2.33559784
 Ti      7.29135188     15.38097728     -1.62368485
 Ti     13.83884334     15.75229783     -2.30636651
 Ti      4.79238276      1.89400799     -1.16269881
 Ti      4.63033113      4.85318830     -1.11350050
 Ti      4.46737351      7.81321816     -1.10095596
 Ti      4.12275918     13.71234730     -1.11778187
 Ti      4.29767910     10.76936198     -1.13240543
 Ti      3.94642343     16.68122533     -1.09793664
 Ti     11.31306937      2.26494208     -1.83989172
 Ti     17.83792452      2.64604200     -2.48680679
 Ti     11.14081470      5.22990128     -1.83066798
 Ti     17.68148062      5.60539992     -2.49125711
 Ti     10.97619157      8.19345461     -1.80069505
 Ti     17.53282089      8.56070882     -2.47758261
 Ti     10.67279569     14.08917382     -1.77708049
 Ti     17.19902840     14.46194581     -2.45467233
 Ti     10.82228037     11.14816221     -1.78497805
 Ti     17.37309568     11.51258291     -2.46238526
 Ti     10.49360609     17.03402106     -1.76541587
 Ti     17.02012050     17.41726716     -2.43683195
 Ti      1.23765249      1.70741684     -4.26612222
 Ti      1.07967163      4.63681503     -4.26962145
 Ti      0.90124975      7.60090468     -4.26434926
 Ti      0.56337465     13.49819591     -4.22364470
 Ti      0.73630824     10.57100836     -4.25529424
 Ti      0.28568315     16.46217528     -4.21629279
 Ti      7.77736910      2.06509480     -4.92940723
 Ti     14.30580914      2.44795061     -5.61626560
 Ti      7.61877198      4.99407661     -4.97783549
 Ti     14.15264245      5.36715281     -5.65947845
 Ti      7.43987601      7.97702535     -4.98255372
 Ti     13.97633572      8.35229121     -5.66328400
 Ti      7.11760971     13.86775338     -4.93632313
 Ti     13.64431869     14.29446150     -5.65257998
 Ti      7.28272715     10.95296942     -4.94098389
 Ti     13.82556476     11.32990488     -5.65033600
 Ti      6.83839178     16.83581461     -4.92734175
 Ti     13.46467339     17.23421642     -5.61337329
 Ti      4.51070775      0.37522788     -4.50174436
 Ti      4.44462898      3.35864356     -4.41638638
 Ti      4.26790372      6.34037749     -4.38756598
 Ti      3.94037878     12.23309340     -4.47010356
 Ti      4.06492792      9.28364463     -4.39371515
 Ti      3.67236353     15.19095421     -4.34152796
 Ti     11.05106062      0.74095559     -5.08972199
 Ti     17.59239011      1.19321593     -5.76807671
 Ti     10.98437464      3.72555421     -5.09551380
 Ti     17.52272294      4.11846725     -5.77420954
 Ti     10.79406749      6.70409211     -5.06960867
 Ti     17.25871934      7.07166491     -5.75165603
 Ti     10.46961605     12.59603095     -5.06514929
 Ti     17.01340412     12.96943118     -5.74639508
 Ti     10.63636784      9.63245039     -5.05838138
 Ti     17.18714220      9.99281766     -5.74967103
 Ti     10.28975891     15.57368679     -5.05208051
 Ti     16.77126580     15.94339181     -5.72883878
  O      4.99213294      0.42741594      0.07834859
  O      4.82929982      3.36277099      0.09106964
  O      4.66806823      6.34443008      0.10912536
  O      4.32481599     12.23377885      0.11202224
  O      4.49507132      9.29623940      0.11340417
  O      4.15368463     15.20429137      0.12653104
  O     11.53031512      0.80051003     -0.59877346
  O     18.06584093      1.17413964     -1.27410064
  O     11.35694043      3.74292064     -0.59255321
  O     17.89670010      4.12548501     -1.26873253
  O     11.18950342      6.71782578     -0.57655407
  O     17.73475175      7.09465884     -1.26327319
  O     10.86655550     12.61075395     -0.55374602
  O     17.40993240     12.98114425     -1.23789120
  O     11.02421328      9.66390304     -0.56453044
  O     17.57104546     10.03575260     -1.24867461
  O     10.70131904     15.57359170     -0.54351797
  O     17.23486706     15.95208743     -1.22479477
  O      2.80363800      1.78734670     -1.04051307
  O      2.64382952      4.74248770     -0.95376200
  O      2.48006817      7.69639178     -0.94308566
  O      2.13682755     13.60418344     -0.99930191
  O      2.30853364     10.65337617     -1.00599256
  O      1.96343926     16.56661004     -0.98954538
  O      9.34272226      2.16246841     -1.72579365
  O     15.85031996      2.53620104     -2.33372524
  O      9.17503016      5.11062399     -1.71645535
  O     15.69905823      5.48736063     -2.38900834
  O      9.00991835      8.06825709     -1.70146700
  O     15.54408617      8.44472345     -2.38459143
  O      8.68695098     13.98659035     -1.60531511
  O     15.21973183     14.35411138     -2.28305070
  O      8.85223430     11.02910045     -1.61477411
  O     15.38660206     11.39587396     -2.29934329
  O      8.51670155     16.93025540     -1.59349428
  O     15.03974386     17.30919964     -2.27520175
  O      0.20033929      1.64314094     -0.69368880
  O      0.03040522      4.58913482     -0.75781598
  O     -0.11688038      7.54562049     -0.75099429
  O     -0.45727590     13.46016439     -0.73032929
  O     -0.27222495     10.50830037     -0.74054043
  O     -0.62670239     16.41330286     -0.65215638
  O      6.77870646      2.00751645     -1.45084444
  O     13.26551967      2.38466980     -2.13611718
  O      6.60639232      4.97204713     -1.43729317
  O     13.09653036      5.34562641     -2.12263880
  O      6.44847910      7.92924543     -1.43499312
  O     12.93137720      8.29523634     -2.11349948
  O      6.11068820     13.82849290     -1.41540042
  O     12.64295138     14.20420243     -2.10851826
  O      6.28697446     10.88247335     -1.43113443
  O     12.77548357     11.25100012     -2.11006870
  O      5.92997198     16.78273579     -1.39689477
  O     12.44765991     17.15478502     -2.08988605
  O      4.74701838      0.41097653     -2.55986887
  O      4.58890980      3.37769465     -2.51145993
  O      4.42121105      6.33357756     -2.49645947
  O      4.08612261     12.23494551     -2.53446217
  O      4.25582689      9.28527327     -2.49161397
  O      3.91720187     15.19665075     -2.46884814
  O     11.21303632      0.77784825     -3.19345356
  O     17.75018341      1.16320426     -3.87118028
  O     11.12479047      3.74744505     -3.19603172
  O     17.59558528      4.11242531     -3.87185959
  O     10.88041743      6.70730035     -3.17694906
  O     17.42060008      7.07347843     -3.85836827
  O     10.54314258     12.60972003     -3.15117873
  O     17.08368797     12.98106106     -3.83538494
  O     10.70879825      9.65281489     -3.16198649
  O     17.32834072     10.03384534     -3.85314814
  O     10.44273705     15.56814548     -3.14900912
  O     16.91037498     15.94040888     -3.82528736
  O      1.33122493      0.23101702     -2.86308278
  O      1.23763523      3.18336646     -2.85997556
  O      1.08250201      6.13758672     -2.85378757
  O      0.73795203     12.04679603     -2.84056551
  O      0.90707224      9.09085695     -2.84919277
  O      0.56603811     15.00516720     -2.82169809
  O      7.96739098      0.54772865     -3.56356142
  O     14.49934473      0.97128104     -4.24432218
  O      7.70674448      3.55235975     -3.55048547
  O     14.31798371      3.92936989     -4.23545880
  O      7.62128650      6.52019492     -3.56029750
  O     14.15218137      6.88416084     -4.23593569
  O      7.37145249     12.42764638     -3.53892641
  O     13.91036353     12.80741607     -4.22654084
  O      7.53536008      9.47807890     -3.55467724
  O     13.99314316      9.85176995     -4.22554153
  O      7.12781783     15.37436964     -3.52074747
  O     13.74425524     15.75913969     -4.21653952
  O      5.66467648      1.92847242     -4.69517822
  O      5.49816880      4.91506001     -4.68604548
  O      5.33458540      7.90037387     -4.67635728
  O      4.99184392     13.78166013     -4.65593800
  O      5.17884320     10.83353002     -4.74300987
  O      4.83171823     16.71797459     -4.69776092
  O     12.20812461      2.30513350     -5.37605189
  O     18.74242840      2.68061776     -6.05944123
  O     12.04574098      5.28773313     -5.36714527
  O     18.57093914      5.66398193     -6.04989762
  O     11.91305838      8.23222957     -5.33268440
  O     18.41426941      8.55894439     -6.04033436
  O     11.54288876     14.15088214     -5.33355563
  O     18.06816583     14.52644972     -6.02091163
  O     11.73651295     11.19510986     -5.32260882
  O     18.24629985     11.54777826     -6.03317565
  O     11.39696139     17.10498578     -5.30400966
  O     17.89753616     17.50849812     -6.00921091
  O      3.14584728      1.79003660     -4.43241615
  O      2.98159893      4.77251088     -4.42201435
  O      2.81211949      7.75863755     -4.41290618
  O      2.47232962     13.63488568     -4.39345375
  O      2.64345186     10.65896450     -4.40196929
  O      2.27940306     16.57823932     -4.35610909
  O      9.68612829      2.16529494     -5.11187900
  O     16.22367343      2.54234161     -5.79922664
  O      9.51898001      5.14511673     -5.10605099
  O     16.05650077      5.51299403     -5.79067803
  O      9.43177356      8.13039347     -5.35811271
  O     15.88930539      8.50233949     -5.77921252
  O      9.11965597     14.01574703     -5.26732109
  O     15.64970613     14.38777940     -5.95743918
  O      9.29523253     11.06201573     -5.28012557
  O     15.83369929     11.42812380     -5.96342539
  O      8.91255594     16.95093358     -5.25027882
  O     15.46267882     17.34880567     -5.93767531
  O      1.15085761      0.22778029     -5.39600586
  O      0.97754024      3.17199200     -5.39033027
  O      0.81636794      6.12508333     -5.37858447
  O      0.47978183     12.04144598     -5.36319344
  O      0.64005632      9.08399743     -5.36856064
  O      0.30716246     14.99130897     -5.34108730
  O      7.60731396      0.59723869     -6.07195667
  O     14.22567933      0.97773301     -6.76535654
  O      7.51781396      3.52151585     -6.07594646
  O     13.98329546      3.90118654     -6.75275141
  O      7.27098253      6.49060493     -6.06012447
  O     13.89407724      6.86594171     -6.75660331
  O      6.93648366     12.40958274     -6.04017000
  O     13.47465905     12.79301614     -6.72615600
  O      7.17735175      9.46778513     -6.05446191
  O     13.71925211      9.83700999     -6.74603959
  O      6.77349372     15.34956784     -6.02419246
  O     13.30617644     15.75175006     -6.71903677
 Au      7.48700025      6.93927700      7.75868676
 Au     10.07041475      7.53538180      8.16209242
 Au      6.32706845      9.68435059      9.69427391
 Au     11.32903276      9.70860086      9.31053426
 Au      8.31341745      9.55808668      7.67972738
 Au      8.87254109      9.56041610     10.49831025
 Au      7.22117485     12.04566590      7.94181411
 Au      9.89565401     11.78339700      8.00459662
