#B3LYP/6-31+G(d) OPT FREQ

439, Energy = -13269.72295343 au

0 1
 Ti      1.57033841      0.72265214      4.67708681
 Ti      1.57881376      3.68006651      4.67862461
 Ti      1.60656856      6.62843460      4.66972443
 Ti      1.58144200     12.53538614      4.68479482
 Ti      1.59049322      9.58312385      4.66714983
 Ti      1.61482543     15.49397729      4.67725678
 Ti      7.87153546      0.72102183      4.73021194
 Ti     14.18430891      0.72053434      4.74070649
 Ti      7.86875317      3.66508119      4.73460290
 Ti     14.21193261      3.65881365      4.72386848
 Ti      7.92993885      6.62576042      4.90829758
 Ti     14.17338160      6.63112555      4.75227104
 Ti      7.86669304     12.54177392      4.72481055
 Ti     14.19560401     12.55053045      4.72465804
 Ti      7.87840400      9.59014010      4.73805086
 Ti     14.19885324      9.60250222      4.76941542
 Ti      7.89100881     15.49488695      4.73506392
 Ti     14.23974372     15.49897266      4.73442617
 Ti      4.71625645      2.19794240      5.31568142
 Ti      4.72861276      5.14293924      5.29136049
 Ti      4.73086253      8.10969400      5.30903922
 Ti      4.72323261     14.01699759      5.31851030
 Ti      4.72123331     11.06007327      5.29684862
 Ti      4.72492238     16.96649503      5.29443714
 Ti     11.03353890      2.14726993      5.31414905
 Ti     17.32336017      2.16418280      5.15541241
 Ti     11.02843455      4.91541592      4.78070195
 Ti     17.32839504      5.09309335      5.10547204
 Ti     11.04531774      8.37474680      4.81109338
 Ti     17.34232062      8.07747922      5.08266827
 Ti     11.04230009     14.07400176      5.28662707
 Ti     17.33024640     14.02540618      5.14603075
 Ti     11.02641018     11.18314569      5.26012141
 Ti     17.32649116     11.08957511      5.11995212
 Ti     11.04202667     16.96583506      5.28269305
 Ti     17.33076946     16.95346982      5.13001737
  O      4.72880170      0.71731708      3.75506838
  O      4.72526572      3.69143775      3.75565684
  O      4.72471934      6.62113167      3.75313387
  O      4.72496563     12.53045373      3.75574740
  O      4.72424657      9.59784030      3.75212455
  O      4.65937506     15.50341861      3.75328595
  O     11.03150692      0.71994777      3.77281577
  O     17.25637401      0.72226692      3.66361898
  O     11.02542021      3.54809978      3.67012549
  O     17.19381251      3.69835935      3.65883180
  O     11.02688606      6.62338570      3.75978514
  O     17.26059371      6.62140764      3.61480973
  O     11.02084713     12.53747579      3.75473405
  O     17.19210504     12.52208853      3.66346360
  O     11.03072064      9.68596672      3.61875992
  O     17.26102028      9.60174196      3.61931006
  O     11.02229613     15.51107024      3.75905427
  O     17.18561568     15.50518524      3.66236153
  O      4.72854555      0.71962317      6.38510422
  O      4.72787165      3.68722388      6.38731789
  O      4.73660365      6.62387987      6.38430711
  O      4.72901522      9.58691561      6.38393064
  O      4.72974065     12.52927866      6.38509691
  O      4.72797406     15.50209959      6.38625642
  O     11.03281127      0.71020544      6.40221798
  O     17.41259209      0.71385204      6.23917363
  O     11.04573816      3.76413378      6.24701995
  O     17.41016409      3.68843927      6.23519308
  O     17.25507494      6.62359581      6.23499676
  O     11.03734239     12.59422112      6.39765925
  O     17.41430540     12.52582009      6.23377098
  O     11.02700186      9.59375560      6.16505067
  O     17.32359273      9.54129051      6.23412814
  O     11.03082232     15.51069700      6.39206915
  O     17.41165530     15.49250644      6.23631770
  O      2.76382335      2.20495280      5.12228410
  O      2.76630806      5.13831801      5.12771405
  O      2.76961745      8.10916804      5.12554201
  O      2.75561767     14.00973688      5.19495364
  O      2.76476686     11.04139072      5.12555406
  O      2.76499523     16.99915830      5.12834169
  O      9.07157113      2.19645147      5.12921979
  O     15.35877995      2.19621311      5.19981266
  O      9.12972065      5.12905305      5.04168276
  O     15.33162823      5.12417700      5.18495938
  O      9.13579789      8.11225437      5.04110983
  O     15.36405582      8.11165081      4.96061624
  O      9.07077252     14.01719307      5.12204945
  O     15.35978759     14.01864079      5.20620298
  O      9.06617906     11.09459398      5.12527602
  O     15.35626350     11.08677690      5.18897439
  O      9.07167329     16.98850306      5.12677488
  O     15.36031560     17.00035284      5.20265680
  O      0.38739815      2.20765788      4.96465295
  O      0.38471144      5.18598273      4.97115920
  O      0.38574712      8.10324716      4.96866528
  O      0.38492145     14.01764662      4.89463248
  O      0.38650695     11.04071847      4.97087704
  O      0.39400138     16.94008284      4.96344154
  O      6.68338537      2.20100377      5.12460308
  O     12.98478653      2.19907531      5.12301463
  O      6.69402008      5.12034737      5.11382712
  O     12.93450468      5.13261561      4.95972654
  O      6.69654556      8.12278543      5.11276498
  O     12.93564556      8.09901910      5.05278550
  O      6.68249905     14.02311638      5.12196365
  O     12.98316051     14.02791873      5.05115901
  O      6.68761303     11.04081470      5.12380247
  O     12.97552571     11.10160400      5.04689718
  O      6.68585608     16.94675789      5.12296001
  O     12.99026221     16.94522659      5.11770306
 Ti      1.58151570      2.20063709      1.49664150
 Ti      1.58363081      5.15495851      1.50253079
 Ti      1.59186803      8.11479426      1.47191906
 Ti      1.56943768     14.02141747      1.50018694
 Ti      1.58227973     11.07289799      1.50084343
 Ti      1.57818591     16.96982579      1.50286493
 Ti      7.87130424      2.22212919      1.47826617
 Ti     14.24862713      2.20548317      1.48834527
 Ti      7.87675698      5.18551259      1.58478792
 Ti     14.24369829      5.17337152      1.51702544
 Ti      7.88165297      8.05441398      1.58374706
 Ti     14.26503624      8.11402066      1.51903716
 Ti      7.87979500     14.01327811      1.50957203
 Ti     14.19859512     14.01290922      1.48767883
 Ti      7.87782927     11.02148922      1.48053322
 Ti     14.25097111     11.05650501      1.51447433
 Ti      7.88125794     16.97462829      1.51748181
 Ti     14.22027518     16.97273156      1.51678553
 Ti      4.72952803      0.72091488      1.93132513
 Ti      4.71686329      3.67231946      1.92775077
 Ti      4.72521478      6.62673126      1.93046270
 Ti      4.72715800     12.54247504      1.92762944
 Ti      4.71809752      9.59222252      1.92510967
 Ti      4.70361977     15.49654791      1.91800415
 Ti     11.04425714      0.72212140      1.93685130
 Ti     17.39454631      0.71868335      1.75907361
 Ti     11.06506422      3.64059411      1.59456049
 Ti     17.36175617      3.68056951      1.74261809
 Ti     11.05791719      6.62715359      1.82863696
 Ti     17.40035449      6.63261179      1.74898496
 Ti     11.02951630     12.54581613      1.92217134
 Ti     17.35319432     12.54856753      1.75535976
 Ti     11.09274715      9.61105150      1.61490436
 Ti     17.40455401      9.59561796      1.75790511
 Ti     11.04888633     15.50583596      1.90895798
 Ti     17.34051076     15.49720288      1.75118068
  O      1.64980291      0.71831761      2.89168702
  O      1.65344977      3.68874989      2.89407365
  O      1.65657346      6.62323515      2.88726270
  O      1.65680554     12.53550085      2.89947264
  O      1.65618294      9.59919516      2.88464293
  O      1.65933450     15.50394253      2.88927699
  O      7.87664422      0.71602921      2.95413766
  O     14.25878620      0.72106297      2.95738338
  O      7.87822815      3.64055729      2.95304032
  O     14.26325323      3.63517364      2.94519729
  O      7.87853944      6.61701643      2.97521424
  O     14.25894530      6.61620888      2.95172462
  O      7.87789274     12.52721635      2.95047142
  O     14.26261741     12.53152532      2.94389738
  O      7.87978399      9.59991848      2.95746485
  O     14.25411752      9.60708585      2.95930254
  O      7.87907236     15.50456564      2.95491657
  O     14.26364609     15.50714432      2.95371902
  O      5.96274727      2.20148936      1.68053938
  O      5.95848879      5.13643348      1.68064503
  O      5.95761279      8.11025555      1.68423548
  O      5.96100199     14.02230239      1.68460430
  O      5.96411606     11.04993738      1.67982807
  O      5.95523356     16.95361489      1.68430824
  O     12.29184902      2.19979519      1.68919554
  O     18.62527249      2.21081350      1.83592834
  O     12.29056216      5.12991782      1.75767944
  O     18.62706502      5.13150301      1.82739219
  O     12.29580965      8.10699590      1.75621735
  O     18.65482490      8.11131793      1.82931798
  O     12.28734615     14.01923302      1.76120270
  O     18.61184358     14.02007345      1.83689655
  O     12.28957812     11.09172622      1.68772361
  O     18.62965994     11.09594399      1.83104957
  O     12.28864826     16.99006635      1.76175893
  O     18.61865653     16.94839275      1.83560365
  O      3.46809339      2.20048571      1.68694072
  O      3.47261818      5.14162456      1.68396213
  O      3.47194426      8.10845865      1.68664284
  O      3.46672888     14.01468647      1.68326233
  O      3.47314744     11.08593343      1.68505300
  O      3.46807964     16.99398364      1.68388518
  O      9.78575249      2.20320141      1.67959536
  O     16.14164180      2.19985012      1.52826993
  O      9.80952994      5.13374196      1.68764487
  O     16.14034092      5.17294338      1.52777979
  O      9.81719865      8.10843850      1.68466223
  O     16.14707145      8.11216208      1.52796147
  O      9.78522982     14.02104280      1.68888567
  O     16.12325521     14.01792331      1.53107077
  O      9.78894870     11.04245724      1.67720067
  O     16.14296021     11.04671860      1.52535921
  O      9.79004316     16.98930036      1.69172110
  O     16.13519720     16.99494044      1.53482107
  O      1.42340039      0.71980441      0.31636561
  O      1.42648866      3.67968697      0.31466931
  O      1.42300327      6.62202539      0.31736007
  O      1.43056387     12.54479668      0.31078866
  O      1.42624646      9.60527654      0.31325997
  O      1.42927126     15.50172744      0.31335469
  O      7.87001860      0.72010713      0.37451671
  O     14.17866862      0.71664680      0.38680194
  O      7.87688134      3.69909736      0.37875146
  O     14.18075235      3.69517642      0.38230202
  O      7.87913884      6.61889411      0.39215788
  O     14.17890802      6.62796180      0.38723137
  O      7.87050760     12.53108973      0.37944535
  O     14.18105291     12.53364163      0.38438319
  O      7.87671663      9.53877612      0.38628252
  O     14.17737609      9.58549400      0.38687776
  O      7.87081225     15.50214500      0.38689293
  O     14.17719531     15.50712330      0.38740909
 Ti      1.21202878      0.71942337     -1.75752175
 Ti      1.21975963      3.67805472     -1.74110369
 Ti      1.22111716      6.63676035     -1.75533981
 Ti      1.22849042     12.55412208     -1.76041713
 Ti      1.22816291      9.59460746     -1.76515972
 Ti      1.22709747     15.51555674     -1.75892704
 Ti      7.81592619      0.70815691     -1.75287415
 Ti     14.38158119      0.71494161     -1.74474248
 Ti      7.80441092      3.67854378     -1.75257935
 Ti     14.37667801      3.68492053     -1.74500898
 Ti      7.81736303      6.63892084     -1.77625323
 Ti     14.39331679      6.64344134     -1.77549943
 Ti      7.83696388     12.55658465     -1.73913837
 Ti     14.41282109     12.55049553     -1.76073407
 Ti      7.83299588      9.59648136     -1.75768511
 Ti     14.39561168      9.59560913     -1.76648022
 Ti      7.81589198     15.51260085     -1.75790650
 Ti     14.40934091     15.51010728     -1.75630241
 Ti      4.52199207      2.19050397     -1.59161227
 Ti      4.52373824      5.15426536     -1.55230957
 Ti      4.52843688      8.11879900     -1.54955447
 Ti      4.52242957     14.02788300     -1.58772473
 Ti      4.53079138     11.07968169     -1.59126437
 Ti      4.51358792     17.00203362     -1.57907569
 Ti     11.08823270      2.18916184     -1.58733264
 Ti     17.65604673      2.19783817     -1.55248141
 Ti     11.08432363      5.15913192     -1.58883355
 Ti     17.66893902      5.16127300     -1.56595475
 Ti     11.08575948      8.12733818     -1.56890861
 Ti     17.68745030      8.12028738     -1.56060303
 Ti     11.11629116     14.03082356     -1.56258642
 Ti     17.68818458     14.03100085     -1.55812337
 Ti     11.09881007     11.08605676     -1.56207204
 Ti     17.69462097     11.07650451     -1.55489374
 Ti     11.10410228     16.98111534     -1.56242844
 Ti     17.67622831     16.99175535     -1.55176830
 Ti      1.30369970      2.19477698     -5.04772806
 Ti      1.31326858      5.12839073     -5.06048784
 Ti      1.30359635      8.09782824     -5.06656126
 Ti      1.29820627     14.00489532     -5.04681690
 Ti      1.30725828     11.07251972     -5.06745828
 Ti      1.18973891     16.97985252     -5.06112726
 Ti      7.88664190      2.17917051     -5.02767245
 Ti     14.46226053      2.18925818     -5.03217217
 Ti      7.90023798      5.11224747     -5.08518336
 Ti     14.48015323      5.11228181     -5.08395591
 Ti      7.89220098      8.10050586     -5.10119657
 Ti     14.47471673      8.10258285     -5.09878726
 Ti      7.90136460     14.00015542     -5.07435167
 Ti     14.48080143     14.05402072     -5.10816406
 Ti      7.90055760     11.08069982     -5.06893140
 Ti     14.49247153     11.08398312     -5.09432306
 Ti      7.79144382     16.97928002     -5.08718989
 Ti     14.46501303     16.99934982     -5.08067258
 Ti      4.50271475      0.67853286     -4.94553993
 Ti      4.59738169      3.66118026     -4.86025121
 Ti      4.58795066      6.64821928     -4.84268471
 Ti      4.60536881     12.54970432     -4.94445295
 Ti      4.55390161      9.59821891     -4.86271729
 Ti      4.49358231     15.51842562     -4.83720531
 Ti     11.07892972      0.67118858     -4.85049841
 Ti     17.67039963      0.74986841     -4.84503371
 Ti     11.18252030      3.65473495     -4.85592691
 Ti     17.76770073      3.67433079     -4.85125511
 Ti     11.15972404      6.63934225     -4.84267761
 Ti     17.67063633      6.63780116     -4.84905131
 Ti     11.17112152     12.54017942     -4.85760201
 Ti     17.76086193     12.53997692     -4.85494921
 Ti     11.16798488      9.57195295     -4.84076381
 Ti     17.76496603      9.55830793     -4.84740701
 Ti     11.15998408     15.52326962     -4.85603701
 Ti     17.68720513     15.52292102     -4.85539531
  O      4.50839834      0.71926992     -0.34010255
  O      4.51180337      3.65916205     -0.33721896
  O      4.51887021      6.64521145     -0.32875073
  O      4.51161413     12.54452216     -0.34718719
  O      4.51399177      9.60207771     -0.33527885
  O      4.50858683     15.51999133     -0.34330149
  O     11.09212688      0.71909360     -0.33393099
  O     17.67306178      0.71960864     -0.32624871
  O     11.08613898      3.66660444     -0.33859022
  O     17.67187301      3.67579707     -0.33129425
  O     11.08687446      6.64625509     -0.33282806
  O     17.67882754      6.64937818     -0.33545907
  O     11.09791677     12.54805853     -0.32934449
  O     17.68737917     12.54486418     -0.32962540
  O     11.08851999      9.59698890     -0.33086711
  O     17.68149603      9.59505575     -0.33078478
  O     11.10075215     15.51551655     -0.32912311
  O     17.68061647     15.52098124     -0.32755178
  O      2.52847458      2.19707998     -1.67679718
  O      2.52832193      5.15681189     -1.59992168
  O      2.53206906      8.11526864     -1.59912302
  O      2.53200488     14.03278665     -1.67630701
  O      2.53590867     11.07698556     -1.67230927
  O      2.52677125     17.00029427     -1.67740184
  O      9.11406052      2.19884860     -1.67864147
  O     15.66027481      2.20128230     -1.60682690
  O      9.11371744      5.15178411     -1.67959564
  O     15.68312353      5.15606203     -1.67034020
  O      9.11588751      8.11405535     -1.67463941
  O     15.69644398      8.11745240     -1.67484631
  O      9.12073918     14.04147867     -1.59814875
  O     15.69885201     14.03604208     -1.59316166
  O      9.11817370     11.07935990     -1.59758737
  O     15.69852913     11.07306338     -1.59923402
  O      9.11734449     16.99008436     -1.59691019
  O     15.68684695     16.99659036     -1.59685671
  O     -0.10072615      2.20175982     -1.60244580
  O     -0.09579378      5.15240906     -1.67670630
  O     -0.07514011      8.11249668     -1.67802483
  O     -0.07997509     14.03686181     -1.67843142
  O     -0.06251463     11.07923762     -1.67655237
  O     -0.08890155     16.99510939     -1.61109102
  O      6.53071700      2.19032508     -1.67172479
  O     13.06451304      2.19708269     -1.67898259
  O      6.52627547      5.15988572     -1.66892877
  O     13.06317794      5.16288646     -1.67592260
  O      6.53688575      8.12127107     -1.67584601
  O     13.06545909      8.11712948     -1.67680757
  O      6.53388118     14.03021317     -1.67708590
  O     13.11354058     14.03292781     -1.68743175
  O      6.54354296     11.07890128     -1.68159552
  O     13.07787612     11.07697217     -1.68239403
  O      6.51999909     16.98999569     -1.67025951
  O     13.08496487     16.98988190     -1.68200143
  O      4.53786602      0.70758103     -2.98954359
  O      4.54403684      3.67864201     -2.95059834
  O      4.54353763      6.63931244     -2.94590286
  O      4.54931403     12.55001857     -3.00414110
  O      4.54615327      9.59563606     -2.95107735
  O      4.54267882     15.51674688     -2.94921836
  O     11.04506561      0.70543087     -2.94757649
  O     17.62852426      0.71755324     -2.94208397
  O     11.12606359      3.67523189     -2.95208329
  O     17.64228330      3.67077609     -2.95163973
  O     11.04922967      6.64422526     -2.95127756
  O     17.63499851      6.63701585     -2.94918907
  O     11.04627626     12.55632668     -2.94631192
  O     17.63298724     12.55424168     -2.94694517
  O     11.04425365      9.59476593     -2.94705195
  O     17.71067856      9.59785626     -2.94637882
  O     11.11407381     15.51567955     -2.94738607
  O     17.62761844     15.51867240     -2.94770046
  O      1.16730567      0.72032719     -3.64614811
  O      1.24142946      3.67323106     -3.64559693
  O      1.25422791      6.63149921     -3.64836590
  O      1.24573761     12.55074781     -3.65661944
  O      1.24698371      9.58996293     -3.65482874
  O      1.24079256     15.51415465     -3.64850943
  O      7.84755798      0.65822843     -3.65317225
  O     14.42834009      0.70876926     -3.65114366
  O      7.75772666      3.67282632     -3.65992126
  O     14.41503644      3.67239459     -3.65396500
  O      7.84214381      6.64068554     -3.67133771
  O     14.41796467      6.63181367     -3.66446899
  O      7.92675950     12.55284276     -3.66165811
  O     14.51267915     12.55925359     -3.66583031
  O      7.92393007      9.59868971     -3.66747811
  O     14.42720808      9.60368487     -3.66342736
  O      7.85000805     15.50868029     -3.66170648
  O     14.51404225     15.51566398     -3.66595195
  O      5.75671982      2.16324301     -5.01435958
  O      5.75975303      5.15448081     -5.01530183
  O      5.76556015      8.14428322     -5.01539114
  O      5.75653567     14.03557632     -5.01636649
  O      5.78411909     11.08130282     -5.09072135
  O      5.76834411     16.97608362     -5.06744863
  O     12.34626893      2.16631666     -5.01136403
  O     18.92693223      2.16872457     -5.01182269
  O     12.35319463      5.15333855     -5.01211275
  O     18.92479343      5.15702773     -5.01288125
  O     12.38480073      8.10072512     -4.98445473
  O     18.93235633      8.05623231     -5.01259674
  O     12.35286853     14.03080392     -5.00936198
  O     18.92498483     14.03379252     -5.01470270
  O     12.37642473     11.06886562     -4.98555887
  O     18.93427013     11.04978872     -5.01564865
  O     12.37237753     16.98851532     -4.98794386
  O     18.92340113     17.02074082     -5.01352979
  O      3.22044698      2.16860736     -5.01483320
  O      3.22535877      5.15561492     -5.01428870
  O      3.22541749      8.14656077     -5.01556500
  O      3.21913862     14.03265332     -5.01720782
  O      3.22122825     11.05180552     -5.01514675
  O      3.19055941     16.98232112     -4.99293827
  O      9.80662525      2.17046481     -5.01076665
  O     16.39100653      2.17423529     -5.01482192
  O      9.80898175      5.15497252     -5.01507870
  O     16.39253663      5.14959923     -5.01645290
  O      9.91779221      8.13950322     -5.26757440
  O     16.39480123      8.14363750     -5.01513968
  O      9.93210408     14.03336686     -5.19536888
  O     16.50904620     14.03254601     -5.20296988
  O      9.94031990     11.07440600     -5.19705723
  O     16.52457610     11.06721736     -5.19701748
  O      9.89109481     16.97561302     -5.19278317
  O     16.48915131     16.99946280     -5.19553072
  O      1.25088733      0.71851802     -6.18411049
  O      1.24511498      3.66782190     -6.18930110
  O      1.25127594      6.62532430     -6.18717196
  O      1.25087407     12.55127117     -6.19242414
  O      1.24291261      9.58949157     -6.18831295
  O      1.24441005     15.50623474     -6.18118684
  O      7.75313584      0.71934483     -6.18526678
  O     14.41859379      0.72195880     -6.18694327
  O      7.83046563      3.64396538     -6.19141794
  O     14.34234357      3.65447390     -6.19246203
  O      7.75205245      6.62230557     -6.19408800
  O     14.42223371      6.61949175     -6.19834840
  O      7.75339785     12.55076102     -6.19457837
  O     14.33862573     12.56087697     -6.19719842
  O      7.82727799      9.60001139     -6.19093921
  O     14.41597948      9.59571130     -6.19876855
  O      7.75657171     15.49529594     -6.18846092
  O     14.33832771     15.52441085     -6.20041601
 Au     10.77836190      9.46631882      9.08161177
 Au     13.08483516     10.73865628      8.25280908
 Au     12.51018864      5.37916179      7.70604617
 Au     15.08719977      6.55839376      7.57413651
 Au     10.25931727      6.99868980      7.89045058
 Au     15.36319900      9.38583208      7.70283663
 Au     12.91813603      8.00673524      8.24393036
 Au      7.68416815      6.53929772      7.57841118

