439
Energy = -13269.72643089 au
 Ti      1.56589435      0.72374312      4.67682164
 Ti      1.59407938      3.68162652      4.67980028
 Ti      1.57046795      6.62538539      4.67281628
 Ti      1.57702547     12.53369185      4.68228934
 Ti      1.59687395      9.57867958      4.66696430
 Ti      1.61785459     15.49293661      4.67499967
 Ti      7.86641122      0.72251871      4.73343294
 Ti     14.19004425      0.72510337      4.74303188
 Ti      7.88054285      3.67288386      4.73194940
 Ti     14.19610032      3.67181446      4.74435873
 Ti      7.91234167      6.63429486      4.80066763
 Ti     14.19955508      6.62699666      4.74057602
 Ti      7.86421981     12.54231748      4.73116257
 Ti     14.19253706     12.55482040      4.72653795
 Ti      7.89587358      9.58962665      4.76817793
 Ti     14.18166149      9.60407769      4.80339524
 Ti      7.89270549     15.49679817      4.73439142
 Ti     14.23728313     15.50002090      4.73411740
 Ti      4.71822004      2.19136078      5.31603850
 Ti      4.72768896      5.13533003      5.29028473
 Ti      4.72723427      8.07854302      5.28779649
 Ti      4.72019248     14.01041969      5.31521726
 Ti      4.72310553     11.04312929      5.30848236
 Ti      4.72147870     16.96015088      5.29394586
 Ti     11.02926987      2.14671052      5.30571894
 Ti     17.32674505      2.17716258      5.15975084
 Ti     11.04268882      4.94833172      4.76106458
 Ti     17.30747810      5.12424072      5.14258967
 Ti     11.04219947      8.34962406      4.78592653
 Ti     17.32920699      8.07674686      5.14705056
 Ti     11.04038982     14.07512353      5.28726822
 Ti     17.33456739     13.99715010      5.12912793
 Ti     11.03040809     11.17633452      5.26003332
 Ti     17.33269341     11.04465926      5.12670269
 Ti     11.04381415     16.96848671      5.28415149
 Ti     17.33304619     16.94562987      5.13845002
  O      4.73013349      0.71816888      3.75536816
  O      4.72517366      3.69433519      3.75647253
  O      4.72625005      6.62012789      3.74989586
  O      4.72726712     12.52752748      3.75872287
  O      4.72293555      9.60104636      3.75301843
  O      4.66119936     15.50314232      3.75377201
  O     11.03068349      0.71646706      3.76850529
  O     17.25658887      0.71821610      3.65913700
  O     11.02901957      3.55460053      3.66879172
  O     17.18480594      3.69867086      3.65830189
  O     10.96026410      6.61389873      3.74784749
  O     17.25305492      6.62027767      3.66208738
  O     11.02593315     12.52891862      3.75808513
  O     17.25191128     12.53231992      3.61518406
  O     11.03294643      9.68579997      3.61436367
  O     17.26171164      9.60276408      3.62948903
  O     11.02186385     15.51014760      3.75902282
  O     17.18987614     15.50633411      3.62559252
  O      4.72982382      0.71744547      6.38564828
  O      4.72762387      3.68620486      6.38828239
  O      4.79872840      6.62151795      6.37992989
  O      4.80513317      9.54636445      6.39339008
  O      4.73181030     12.52201623      6.38631766
  O      4.72858159     15.49734792      6.38465483
  O     11.03184087      0.70934263      6.40035816
  O     17.41218601      0.71000547      6.23638782
  O     11.02851771      3.72375408      6.24702072
  O     17.41008242      3.67913356      6.23704336
  O     17.34234836      6.62392012      6.23609753
  O     11.03275235     12.59177224      6.39507351
  O     17.41134120     12.52594519      6.21844035
  O     11.02844101      9.55436904      6.14528517
  O     17.33293404      9.58745607      6.23559082
  O     11.02998865     15.51025572      6.39273700
  O     17.41185836     15.46222799      6.22285507
  O      2.76741737      2.20238301      5.12438074
  O      2.76930002      5.18138631      5.13012136
  O      2.77484838      8.10366556      5.12748300
  O      2.75780357     14.00869495      5.19530897
  O      2.77455792     11.03733344      5.13223710
  O      2.76562286     16.99940807      5.12857039
  O      9.06738645      2.19529118      5.12553625
  O     15.35569965      2.20301561      5.19651353
  O      9.12201500      5.12824394      5.10268878
  O     15.29955906      5.13151367      5.27464714
  O      9.13313251      8.10171601      5.04570560
  O     15.35194955      8.10722479      5.11982968
  O      9.07012544     14.01701745      5.12275916
  O     15.35879183     14.01515780      5.20010052
  O      9.07108064     11.09874893      5.12299332
  O     15.36219544     11.08769036      5.12296192
  O      9.07049383     16.99160776      5.12649762
  O     15.36164867     16.99816333      5.20142738
  O      0.39023155      2.20958429      4.96253054
  O      0.38523475      5.13764761      4.96847948
  O      0.38760169      8.11036074      4.97035737
  O      0.39011547     14.01802533      4.89085928
  O      0.39499105     11.04061438      4.96762444
  O      0.39376315     16.93842712      4.96294151
  O      6.68397955      2.20414502      5.12419917
  O     12.98518092      2.20201488      5.11949988
  O      6.69967648      5.12634321      5.12266659
  O     12.92189736      5.18813788      5.04305310
  O      6.69436445      8.10913794      5.03485867
  O     12.92479425      8.04362164      5.03545403
  O      6.68304935     14.02272360      5.12279257
  O     12.97916071     14.03077431      5.05070206
  O      6.68851966     11.04490429      5.12336712
  O     12.98209420     11.10046792      5.11682153
  O      6.68521787     16.94627878      5.12298511
  O     12.99094786     16.94803558      5.11719982
 Ti      1.57908907      2.20124676      1.49572422
 Ti      1.58064722      5.15484680      1.50601205
 Ti      1.59384222      8.11465200      1.47021676
 Ti      1.58118843     14.02088635      1.49230925
 Ti      1.58900071     11.07123368      1.50066254
 Ti      1.58233204     16.96975267      1.50223518
 Ti      7.87405506      2.21279307      1.50157703
 Ti     14.25397107      2.20369909      1.50132725
 Ti      7.87282357      5.17168287      1.52882656
 Ti     14.24706031      5.17453530      1.50875873
 Ti      7.87610731      8.09277650      1.55460032
 Ti     14.26227338      8.12166475      1.52677310
 Ti      7.88206715     14.01339614      1.50550158
 Ti     14.21523475     14.00988471      1.48509479
 Ti      7.87926993     11.03351293      1.51149646
 Ti     14.26105039     11.05372135      1.52472106
 Ti      7.88393562     16.97124877      1.51584942
 Ti     14.23193179     16.97111272      1.51509001
 Ti      4.72841028      0.72027996      1.93110730
 Ti      4.71533160      3.67215262      1.92596640
 Ti      4.72196569      6.62617407      1.92375328
 Ti      4.72776862     12.54319733      1.92992463
 Ti      4.71841673      9.59428537      1.92866500
 Ti      4.70800162     15.49679841      1.91635465
 Ti     11.04481083      0.71768953      1.93480828
 Ti     17.40069603      0.71853472      1.76735494
 Ti     11.07428165      3.64026094      1.60003794
 Ti     17.35685426      3.68301350      1.76779687
 Ti     11.03989808      6.62785127      1.77543727
 Ti     17.40146775      6.63507208      1.76955229
 Ti     11.03408419     12.55186068      1.92008369
 Ti     17.37132921     12.54812965      1.75227271
 Ti     11.09787919      9.61806367      1.61911101
 Ti     17.40788263      9.59650086      1.77097106
 Ti     11.05868605     15.50556870      1.90988532
 Ti     17.34661871     15.49775405      1.74829281
  O      1.65201143      0.72045957      2.89249706
  O      1.65592879      3.68932522      2.89303084
  O      1.65504093      6.62340104      2.88927385
  O      1.65893777     12.53607738      2.89879433
  O      1.65879148      9.59579371      2.88495985
  O      1.66102954     15.50300863      2.88878402
  O      7.87683230      0.71994339      2.95402045
  O     14.25874228      0.72630873      2.95814846
  O      7.87938324      3.68962545      2.95054605
  O     14.26075145      3.69236385      2.95933702
  O      7.88120285      6.61417495      2.96478036
  O     14.26098049      6.61639519      2.95576926
  O      7.87871279     12.52703730      2.95267196
  O     14.26036219     12.53143198      2.94490702
  O      7.88223032      9.60103253      2.96114478
  O     14.24988243      9.60203879      2.97272078
  O      7.87996537     15.50530326      2.95468776
  O     14.26357147     15.50870181      2.95332239
  O      5.96824349      2.20455276      1.68257788
  O      5.95885381      5.14122354      1.67831131
  O      5.96199351      8.10801822      1.68463518
  O      5.96831378     14.02183434      1.68534412
  O      5.96804986     11.04838487      1.68014215
  O      5.96241626     16.95583769      1.68465205
  O     12.29317921      2.20169039      1.69120028
  O     18.62705740      2.21327907      1.83590068
  O     12.28633179      5.13900320      1.75627241
  O     18.62298035      5.13605194      1.83297818
  O     12.29108828      8.10314379      1.75793596
  O     18.65369815      8.10896979      1.83179585
  O     12.28966233     14.01876728      1.76127637
  O     18.63684799     14.02435366      1.77068030
  O     12.29073201     11.09092872      1.68690155
  O     18.64847899     11.08865775      1.82422597
  O     12.29091933     16.99172904      1.76152264
  O     18.63288280     16.95086504      1.83052714
  O      3.47059772      2.20124864      1.68741701
  O      3.47300803      5.14155064      1.68387639
  O      3.47322756      8.10837119      1.68674128
  O      3.47787485     14.01428061      1.68701693
  O      3.48104028     11.08071297      1.68844694
  O      3.47454828     16.99572393      1.68660599
  O      9.78526546      2.20606551      1.68110649
  O     16.13946995      2.20058805      1.53086070
  O      9.79861606      5.13264772      1.68021115
  O     16.14213306      5.18450907      1.52724336
  O      9.80288205      8.10953099      1.68173528
  O     16.14570013      8.11118128      1.59285130
  O      9.78763751     14.02069884      1.69052727
  O     16.12928572     14.01691890      1.52802109
  O      9.79205899     11.04429840      1.67684614
  O     16.14649370     11.04351983      1.52468938
  O      9.79118865     16.98805400      1.69170202
  O     16.13844342     16.99823044      1.52920511
  O      1.42528927      0.72169620      0.31571035
  O      1.42644206      3.68298685      0.31568656
  O      1.42334289      6.62163838      0.31806683
  O      1.48764436     12.53799259      0.30818842
  O      1.42826550      9.60250527      0.31231216
  O      1.48899299     15.50586519      0.31038183
  O      7.87126717      0.72607365      0.38113931
  O     14.17830757      0.72348348      0.39050061
  O      7.87598229      3.69094660      0.36713915
  O     14.18041850      3.69446239      0.38705426
  O      7.87836319      6.62761678      0.38084490
  O     14.17962875      6.63876777      0.38790185
  O      7.87245733     12.52902230      0.38430154
  O     14.18129275     12.52993194      0.38709324
  O      7.87630930      9.55141916      0.38209402
  O     14.17921252      9.58210039      0.38962379
  O      7.87195418     15.50255041      0.38481385
  O     14.17730418     15.50748015      0.38716922
 Ti      1.21202878      0.71942337     -1.75752175
 Ti      1.21975963      3.67805472     -1.74110369
 Ti      1.22111716      6.63676035     -1.75533981
 Ti      1.22849042     12.55412208     -1.76041713
 Ti      1.22816291      9.59460746     -1.76515972
 Ti      1.22709747     15.51555674     -1.75892704
 Ti      7.81592619      0.70815691     -1.75287415
 Ti     14.38158119      0.71494161     -1.74474248
 Ti      7.80441092      3.67854378     -1.75257935
 Ti     14.37667801      3.68492053     -1.74500898
 Ti      7.81736303      6.63892084     -1.77625323
 Ti     14.39331679      6.64344134     -1.77549943
 Ti      7.83696388     12.55658465     -1.73913837
 Ti     14.41282109     12.55049553     -1.76073407
 Ti      7.83299588      9.59648136     -1.75768511
 Ti     14.39561168      9.59560913     -1.76648022
 Ti      7.81589198     15.51260085     -1.75790650
 Ti     14.40934091     15.51010728     -1.75630241
 Ti      4.52199207      2.19050397     -1.59161227
 Ti      4.52373824      5.15426536     -1.55230957
 Ti      4.52843688      8.11879900     -1.54955447
 Ti      4.52242957     14.02788300     -1.58772473
 Ti      4.53079138     11.07968169     -1.59126437
 Ti      4.51358792     17.00203362     -1.57907569
 Ti     11.08823270      2.18916184     -1.58733264
 Ti     17.65604673      2.19783817     -1.55248141
 Ti     11.08432363      5.15913192     -1.58883355
 Ti     17.66893902      5.16127300     -1.56595475
 Ti     11.08575948      8.12733818     -1.56890861
 Ti     17.68745030      8.12028738     -1.56060303
 Ti     11.11629116     14.03082356     -1.56258642
 Ti     17.68818458     14.03100085     -1.55812337
 Ti     11.09881007     11.08605676     -1.56207204
 Ti     17.69462097     11.07650451     -1.55489374
 Ti     11.10410228     16.98111534     -1.56242844
 Ti     17.67622831     16.99175535     -1.55176830
 Ti      1.30369970      2.19477698     -5.04772806
 Ti      1.31326858      5.12839073     -5.06048784
 Ti      1.30359635      8.09782824     -5.06656126
 Ti      1.29820627     14.00489532     -5.04681690
 Ti      1.30725828     11.07251972     -5.06745828
 Ti      1.18973891     16.97985252     -5.06112726
 Ti      7.88664190      2.17917051     -5.02767245
 Ti     14.46226053      2.18925818     -5.03217217
 Ti      7.90023798      5.11224747     -5.08518336
 Ti     14.48015323      5.11228181     -5.08395591
 Ti      7.89220098      8.10050586     -5.10119657
 Ti     14.47471673      8.10258285     -5.09878726
 Ti      7.90136460     14.00015542     -5.07435167
 Ti     14.48080143     14.05402072     -5.10816406
 Ti      7.90055760     11.08069982     -5.06893140
 Ti     14.49247153     11.08398312     -5.09432306
 Ti      7.79144382     16.97928002     -5.08718989
 Ti     14.46501303     16.99934982     -5.08067258
 Ti      4.50271475      0.67853286     -4.94553993
 Ti      4.59738169      3.66118026     -4.86025121
 Ti      4.58795066      6.64821928     -4.84268471
 Ti      4.60536881     12.54970432     -4.94445295
 Ti      4.55390161      9.59821891     -4.86271729
 Ti      4.49358231     15.51842562     -4.83720531
 Ti     11.07892972      0.67118858     -4.85049841
 Ti     17.67039963      0.74986841     -4.84503371
 Ti     11.18252030      3.65473495     -4.85592691
 Ti     17.76770073      3.67433079     -4.85125511
 Ti     11.15972404      6.63934225     -4.84267761
 Ti     17.67063633      6.63780116     -4.84905131
 Ti     11.17112152     12.54017942     -4.85760201
 Ti     17.76086193     12.53997692     -4.85494921
 Ti     11.16798488      9.57195295     -4.84076381
 Ti     17.76496603      9.55830793     -4.84740701
 Ti     11.15998408     15.52326962     -4.85603701
 Ti     17.68720513     15.52292102     -4.85539531
  O      4.50839834      0.71926992     -0.34010255
  O      4.51180337      3.65916205     -0.33721896
  O      4.51887021      6.64521145     -0.32875073
  O      4.51161413     12.54452216     -0.34718719
  O      4.51399177      9.60207771     -0.33527885
  O      4.50858683     15.51999133     -0.34330149
  O     11.09212688      0.71909360     -0.33393099
  O     17.67306178      0.71960864     -0.32624871
  O     11.08613898      3.66660444     -0.33859022
  O     17.67187301      3.67579707     -0.33129425
  O     11.08687446      6.64625509     -0.33282806
  O     17.67882754      6.64937818     -0.33545907
  O     11.09791677     12.54805853     -0.32934449
  O     17.68737917     12.54486418     -0.32962540
  O     11.08851999      9.59698890     -0.33086711
  O     17.68149603      9.59505575     -0.33078478
  O     11.10075215     15.51551655     -0.32912311
  O     17.68061647     15.52098124     -0.32755178
  O      2.52847458      2.19707998     -1.67679718
  O      2.52832193      5.15681189     -1.59992168
  O      2.53206906      8.11526864     -1.59912302
  O      2.53200488     14.03278665     -1.67630701
  O      2.53590867     11.07698556     -1.67230927
  O      2.52677125     17.00029427     -1.67740184
  O      9.11406052      2.19884860     -1.67864147
  O     15.66027481      2.20128230     -1.60682690
  O      9.11371744      5.15178411     -1.67959564
  O     15.68312353      5.15606203     -1.67034020
  O      9.11588751      8.11405535     -1.67463941
  O     15.69644398      8.11745240     -1.67484631
  O      9.12073918     14.04147867     -1.59814875
  O     15.69885201     14.03604208     -1.59316166
  O      9.11817370     11.07935990     -1.59758737
  O     15.69852913     11.07306338     -1.59923402
  O      9.11734449     16.99008436     -1.59691019
  O     15.68684695     16.99659036     -1.59685671
  O     -0.10072615      2.20175982     -1.60244580
  O     -0.09579378      5.15240906     -1.67670630
  O     -0.07514011      8.11249668     -1.67802483
  O     -0.07997509     14.03686181     -1.67843142
  O     -0.06251463     11.07923762     -1.67655237
  O     -0.08890155     16.99510939     -1.61109102
  O      6.53071700      2.19032508     -1.67172479
  O     13.06451304      2.19708269     -1.67898259
  O      6.52627547      5.15988572     -1.66892877
  O     13.06317794      5.16288646     -1.67592260
  O      6.53688575      8.12127107     -1.67584601
  O     13.06545909      8.11712948     -1.67680757
  O      6.53388118     14.03021317     -1.67708590
  O     13.11354058     14.03292781     -1.68743175
  O      6.54354296     11.07890128     -1.68159552
  O     13.07787612     11.07697217     -1.68239403
  O      6.51999909     16.98999569     -1.67025951
  O     13.08496487     16.98988190     -1.68200143
  O      4.53786602      0.70758103     -2.98954359
  O      4.54403684      3.67864201     -2.95059834
  O      4.54353763      6.63931244     -2.94590286
  O      4.54931403     12.55001857     -3.00414110
  O      4.54615327      9.59563606     -2.95107735
  O      4.54267882     15.51674688     -2.94921836
  O     11.04506561      0.70543087     -2.94757649
  O     17.62852426      0.71755324     -2.94208397
  O     11.12606359      3.67523189     -2.95208329
  O     17.64228330      3.67077609     -2.95163973
  O     11.04922967      6.64422526     -2.95127756
  O     17.63499851      6.63701585     -2.94918907
  O     11.04627626     12.55632668     -2.94631192
  O     17.63298724     12.55424168     -2.94694517
  O     11.04425365      9.59476593     -2.94705195
  O     17.71067856      9.59785626     -2.94637882
  O     11.11407381     15.51567955     -2.94738607
  O     17.62761844     15.51867240     -2.94770046
  O      1.16730567      0.72032719     -3.64614811
  O      1.24142946      3.67323106     -3.64559693
  O      1.25422791      6.63149921     -3.64836590
  O      1.24573761     12.55074781     -3.65661944
  O      1.24698371      9.58996293     -3.65482874
  O      1.24079256     15.51415465     -3.64850943
  O      7.84755798      0.65822843     -3.65317225
  O     14.42834009      0.70876926     -3.65114366
  O      7.75772666      3.67282632     -3.65992126
  O     14.41503644      3.67239459     -3.65396500
  O      7.84214381      6.64068554     -3.67133771
  O     14.41796467      6.63181367     -3.66446899
  O      7.92675950     12.55284276     -3.66165811
  O     14.51267915     12.55925359     -3.66583031
  O      7.92393007      9.59868971     -3.66747811
  O     14.42720808      9.60368487     -3.66342736
  O      7.85000805     15.50868029     -3.66170648
  O     14.51404225     15.51566398     -3.66595195
  O      5.75671982      2.16324301     -5.01435958
  O      5.75975303      5.15448081     -5.01530183
  O      5.76556015      8.14428322     -5.01539114
  O      5.75653567     14.03557632     -5.01636649
  O      5.78411909     11.08130282     -5.09072135
  O      5.76834411     16.97608362     -5.06744863
  O     12.34626893      2.16631666     -5.01136403
  O     18.92693223      2.16872457     -5.01182269
  O     12.35319463      5.15333855     -5.01211275
  O     18.92479343      5.15702773     -5.01288125
  O     12.38480073      8.10072512     -4.98445473
  O     18.93235633      8.05623231     -5.01259674
  O     12.35286853     14.03080392     -5.00936198
  O     18.92498483     14.03379252     -5.01470270
  O     12.37642473     11.06886562     -4.98555887
  O     18.93427013     11.04978872     -5.01564865
  O     12.37237753     16.98851532     -4.98794386
  O     18.92340113     17.02074082     -5.01352979
  O      3.22044698      2.16860736     -5.01483320
  O      3.22535877      5.15561492     -5.01428870
  O      3.22541749      8.14656077     -5.01556500
  O      3.21913862     14.03265332     -5.01720782
  O      3.22122825     11.05180552     -5.01514675
  O      3.19055941     16.98232112     -4.99293827
  O      9.80662525      2.17046481     -5.01076665
  O     16.39100653      2.17423529     -5.01482192
  O      9.80898175      5.15497252     -5.01507870
  O     16.39253663      5.14959923     -5.01645290
  O      9.91779221      8.13950322     -5.26757440
  O     16.39480123      8.14363750     -5.01513968
  O      9.93210408     14.03336686     -5.19536888
  O     16.50904620     14.03254601     -5.20296988
  O      9.94031990     11.07440600     -5.19705723
  O     16.52457610     11.06721736     -5.19701748
  O      9.89109481     16.97561302     -5.19278317
  O     16.48915131     16.99946280     -5.19553072
  O      1.25088733      0.71851802     -6.18411049
  O      1.24511498      3.66782190     -6.18930110
  O      1.25127594      6.62532430     -6.18717196
  O      1.25087407     12.55127117     -6.19242414
  O      1.24291261      9.58949157     -6.18831295
  O      1.24441005     15.50623474     -6.18118684
  O      7.75313584      0.71934483     -6.18526678
  O     14.41859379      0.72195880     -6.18694327
  O      7.83046563      3.64396538     -6.19141794
  O     14.34234357      3.65447390     -6.19246203
  O      7.75205245      6.62230557     -6.19408800
  O     14.42223371      6.61949175     -6.19834840
  O      7.75339785     12.55076102     -6.19457837
  O     14.33862573     12.56087697     -6.19719842
  O      7.82727799      9.60001139     -6.19093921
  O     14.41597948      9.59571130     -6.19876855
  O      7.75657171     15.49529594     -6.18846092
  O     14.33832771     15.52441085     -6.20041601
 Au     10.71396567      5.68660249      7.53477318
 Au      9.93856617      8.16266502      8.29744205
 Au     12.10874860     10.10974670      8.56383838
 Au      7.42279691      9.20836333      7.78942955
 Au      7.80078633      6.49282905      7.65533380
 Au      9.46414039     10.87793123      8.64567399
 Au     12.68960627      7.47836945      7.95366355
 Au     14.59948113      9.43269581      7.69653447
