#B3LYP/6-31+G(d) OPT FREQ

439, Energy = -13269.73926709 au

0 1
 Ti      1.56809667      0.72438807      4.71396304
 Ti      1.57587256      3.69105418      4.71751403
 Ti      1.57308113      6.64210367      4.67717457
 Ti      1.59098113     12.54714455      4.67804409
 Ti      1.56459736      9.59627945      4.66837106
 Ti      1.61486091     15.49896427      4.68671464
 Ti      7.86492451      0.73548489      4.73628375
 Ti     14.19717821      0.72260798      4.74358793
 Ti      7.87160006      3.68843486      4.76820407
 Ti     14.18960918      3.67426801      4.74488866
 Ti      7.88230438      6.64386763      4.77122930
 Ti     14.19673247      6.62430760      4.74412622
 Ti      7.88419361     12.54948367      4.73658478
 Ti     14.23758347     12.54194982      4.73384989
 Ti      7.88427412      9.60621755      4.78071605
 Ti     14.17374047      9.58768324      4.75020569
 Ti      7.89219045     15.50247088      4.73493441
 Ti     14.21778804     15.49764277      4.73619691
 Ti      4.70230107      2.18348740      5.30158470
 Ti      4.69243323      5.18042236      5.21585431
 Ti      4.70460594      8.12782513      5.16990228
 Ti      4.72820691     14.03447895      5.31365462
 Ti      4.71730139     11.11359886      5.25650123
 Ti      4.72312384     16.96697247      5.29434700
 Ti     11.03770461      2.14470246      5.27133134
 Ti     17.32233358      2.19485437      5.16380818
 Ti     11.02270891      4.94129631      4.88500517
 Ti     17.29969078      5.14586488      5.14304749
 Ti     11.02859509      8.33457155      4.94345187
 Ti     17.31149854      8.11049326      5.16922927
 Ti     11.04653495     14.06997495      5.28686709
 Ti     17.33569536     14.02486351      5.15200529
 Ti     11.05097557     11.16591312      5.27898978
 Ti     17.32608380     11.06735497      5.13853549
 Ti     11.03656542     16.96783954      5.28771487
 Ti     17.32746265     16.96818993      5.13268840
  O      4.72402606      0.72203167      3.76100257
  O      4.65568815      3.69632725      3.75802869
  O      4.65881646      6.62147633      3.69941054
  O      4.72171335     12.53190617      3.75863703
  O      4.72212211      9.60179855      3.69464789
  O      4.65610695     15.50687691      3.75817038
  O     11.03317159      0.71473724      3.76202459
  O     17.25439072      0.72043471      3.65772766
  O     11.02999281      3.62119316      3.67483006
  O     17.18599738      3.69763669      3.65770159
  O     11.02214307      6.62777078      3.75618108
  O     17.18799773      6.62430934      3.65544232
  O     11.02586092     12.52971447      3.75705893
  O     17.18447266     12.52894820      3.64092405
  O     11.02981275      9.61411198      3.68144553
  O     17.25511590      9.59656977      3.64757062
  O     11.02240776     15.51078154      3.75811167
  O     17.18585332     15.50659355      3.64964426
  O      4.73423250      0.72678418      6.38548899
  O      4.74305516      3.70623517      6.39342022
  O      4.72572755      6.67816282      6.30856863
  O      4.80152007      9.58852920      6.33472206
  O      4.72874165     12.53157586      6.38317925
  O      4.73088052     15.50406164      6.39021006
  O     11.02792865      0.71326578      6.39801319
  O     17.41142557      0.71862456      6.23671136
  O     11.03594164      3.69598679      6.23715639
  O     17.41110934      3.68999484      6.23668022
  O     17.34422684      6.62695280      6.23564592
  O     11.03183156     12.59473871      6.39711849
  O     17.41097723     12.53665502      6.22980352
  O     11.10260011      9.60779658      6.24625118
  O     17.40960370      9.59616626      6.23527404
  O     11.03124126     15.50983654      6.39202661
  O     17.41187517     15.49827926      6.23299580
  O      2.75941768      2.20762323      5.19780089
  O      2.75462078      5.18606330      5.19869471
  O      2.76296480      8.12461687      5.12188388
  O      2.76025012     14.01513038      5.19766326
  O      2.77029509     11.03612204      5.12670741
  O      2.76107586     16.99838811      5.19558847
  O      9.07284161      2.19837913      5.04298399
  O     15.35459370      2.20463676      5.19700925
  O      9.09715658      5.18317166      5.06023579
  O     15.29834608      5.13103793      5.27550837
  O      9.11175509      8.11069831      5.11633460
  O     15.32489095      8.12107008      5.20118446
  O      9.07475885     14.02394991      5.12472855
  O     15.36038027     14.02018388      5.20539981
  O      9.08264344     11.09641850      5.10998965
  O     15.35552242     11.02869556      5.19791372
  O      9.06853000     16.99803848      5.12687807
  O     15.35825581     16.99717405      5.20155393
  O      0.38714168      2.21169652      4.96682666
  O      0.37929532      5.18276237      4.96558749
  O      0.38287796      8.10912319      4.96549075
  O      0.38843628     14.02163963      4.89180478
  O      0.39279519     11.09460974      4.96314519
  O      0.39320474     16.94051467      4.96367390
  O      6.67354925      2.20753662      5.11092795
  O     12.98637960      2.20065387      5.11786702
  O      6.66368109      5.18598524      5.03401514
  O     12.92856081      5.19095052      5.04898523
  O      6.68307793      8.11546367      5.02730223
  O     12.93747735      8.04612216      5.11810447
  O      6.68349869     14.02609587      5.12197037
  O     12.98800500     14.01867728      5.04765693
  O      6.68908754     11.09347381      5.11033171
  O     12.99448680     11.10079359      5.11520153
  O      6.68266586     16.94729680      5.12403843
  O     12.98856100     16.94947345      5.11701773
 Ti      1.57096970      2.20056716      1.51513711
 Ti      1.56918022      5.15520764      1.51374669
 Ti      1.58367270      8.11281429      1.47902407
 Ti      1.55904051     14.02432986      1.50143344
 Ti      1.57473160     11.07502189      1.49874842
 Ti      1.57066897     16.97256514      1.51231860
 Ti      7.87586448      2.21717867      1.51936913
 Ti     14.24668700      2.20321671      1.50207173
 Ti      7.87710783      5.16731538      1.53591261
 Ti     14.23692394      5.16567855      1.51427594
 Ti      7.88286129      8.10521667      1.53108775
 Ti     14.25446648      8.11184221      1.50310616
 Ti      7.88491791     14.01684435      1.50718496
 Ti     14.19885289     14.02070538      1.49493938
 Ti      7.88240029     11.05100709      1.53006533
 Ti     14.25045304     11.06633644      1.51110383
 Ti      7.88312346     16.97867659      1.51404466
 Ti     14.22041881     16.97457248      1.51483371
 Ti      4.72514441      0.72238365      1.92321721
 Ti      4.70438013      3.67306980      1.91946061
 Ti      4.71436250      6.62814120      1.85208795
 Ti      4.71871136     12.55390327      1.91380952
 Ti      4.72138178      9.60352097      1.86777562
 Ti      4.70053661     15.49986687      1.91280555
 Ti     11.04717647      0.72358406      1.92634884
 Ti     17.38977344      0.71918425      1.76612853
 Ti     11.06584097      3.65720972      1.61514505
 Ti     17.35057282      3.68386192      1.77016308
 Ti     11.04637805      6.62684103      1.87763432
 Ti     17.37903204      6.63548412      1.77970161
 Ti     11.04030756     12.53802556      1.92871195
 Ti     17.34569593     12.54884348      1.76832790
 Ti     11.08332089      9.59594983      1.66130517
 Ti     17.40030999      9.59469944      1.77374935
 Ti     11.04702574     15.50463912      1.91136141
 Ti     17.33563301     15.49734840      1.75980774
  O      1.65365908      0.71951944      2.93110186
  O      1.65629138      3.69149942      2.93903044
  O      1.65629999      6.62376558      2.88977010
  O      1.65852830     12.53742431      2.89168902
  O      1.65465605      9.60093098      2.88662217
  O      1.66188875     15.50588497      2.89531163
  O      7.87285615      0.71729886      2.95304625
  O     14.25829346      0.72554473      2.95784610
  O      7.87459059      3.69363151      2.96306746
  O     14.26057558      3.69225250      2.95933726
  O      7.88103967      6.62604707      2.95764507
  O     14.26160246      6.62304969      2.95736942
  O      7.87956291     12.53379322      2.95212532
  O     14.26253220     12.52722858      2.95193172
  O      7.87902467      9.60110732      2.96799620
  O     14.25787119      9.59359573      2.96572168
  O      7.87825691     15.50719882      2.95462337
  O     14.26184752     15.50829544      2.95394501
  O      5.95607359      2.20561689      1.68537672
  O      5.94663166      5.13921163      1.67843341
  O      5.96009463      8.10865947      1.67672302
  O      5.95647436     14.02590910      1.68550184
  O      5.96017013     11.08853556      1.67624640
  O      5.94845600     16.95836738      1.68467221
  O     12.29129471      2.20411524      1.69427570
  O     18.62336725      2.21222479      1.83800520
  O     12.28745483      5.13890477      1.75344043
  O     18.61662076      5.13950524      1.83555409
  O     12.29251460      8.10583201      1.75573012
  O     18.64369508      8.10763205      1.83600006
  O     12.28740130     14.01771816      1.76176945
  O     18.61043916     14.02091453      1.83486423
  O     12.29171738     11.04633270      1.75453698
  O     18.62361470     11.09213125      1.83210509
  O     12.28872064     16.98886058      1.76087572
  O     18.61885354     16.95038960      1.83547912
  O      3.46578056      2.19984000      1.68719252
  O      3.46549408      5.13479398      1.67680746
  O      3.46785733      8.11347897      1.67849792
  O      3.46553245     14.01878630      1.68252606
  O      3.47019934     11.09138979      1.68076711
  O      3.46731679     16.99753424      1.68500323
  O      9.78317924      2.20645793      1.68362323
  O     16.13603424      2.20095441      1.53077909
  O      9.79261504      5.13759203      1.68190398
  O     16.13672653      5.17927792      1.52583073
  O      9.79064257      8.10812121      1.68385632
  O     16.14328242      8.11431300      1.52990563
  O      9.78742350     14.01787312      1.69148261
  O     16.10992264     14.01894526      1.52887650
  O      9.79506010     11.04427618      1.68270766
  O     16.13863027     11.03927614      1.52708581
  O      9.78741781     16.98969781      1.69016175
  O     16.13176388     16.99632376      1.53249439
  O      1.42590619      0.72424384      0.32532879
  O      1.42757304      3.67610460      0.32563866
  O      1.42344869      6.62013064      0.32099073
  O      1.43003907     12.54726521      0.31009280
  O      1.42531893      9.60375668      0.31480196
  O      1.42994735     15.50673883      0.31634811
  O      7.86796603      0.73222572      0.38446476
  O     14.17742898      0.72389002      0.38986243
  O      7.87380654      3.69096068      0.37886043
  O     14.18019581      3.69348414      0.38757294
  O      7.87449692      6.62733382      0.38164695
  O     14.17850284      6.63012421      0.38591570
  O      7.87263644     12.53293476      0.38541354
  O     14.17560564     12.53101194      0.38814753
  O      7.87271024      9.58922212      0.38390914
  O     14.17624100      9.59043942      0.38793444
  O      7.86964106     15.50454399      0.38574445
  O     14.17564653     15.50752824      0.38806734
 Ti      1.21202878      0.71942337     -1.75752175
 Ti      1.21975963      3.67805472     -1.74110369
 Ti      1.22111716      6.63676035     -1.75533981
 Ti      1.22849042     12.55412208     -1.76041713
 Ti      1.22816291      9.59460746     -1.76515972
 Ti      1.22709747     15.51555674     -1.75892704
 Ti      7.81592619      0.70815691     -1.75287415
 Ti     14.38158119      0.71494161     -1.74474248
 Ti      7.80441092      3.67854378     -1.75257935
 Ti     14.37667801      3.68492053     -1.74500898
 Ti      7.81736303      6.63892084     -1.77625323
 Ti     14.39331679      6.64344134     -1.77549943
 Ti      7.83696388     12.55658465     -1.73913837
 Ti     14.41282109     12.55049553     -1.76073407
 Ti      7.83299588      9.59648136     -1.75768511
 Ti     14.39561168      9.59560913     -1.76648022
 Ti      7.81589198     15.51260085     -1.75790650
 Ti     14.40934091     15.51010728     -1.75630241
 Ti      4.52199207      2.19050397     -1.59161227
 Ti      4.52373824      5.15426536     -1.55230957
 Ti      4.52843688      8.11879900     -1.54955447
 Ti      4.52242957     14.02788300     -1.58772473
 Ti      4.53079138     11.07968169     -1.59126437
 Ti      4.51358792     17.00203362     -1.57907569
 Ti     11.08823270      2.18916184     -1.58733264
 Ti     17.65604673      2.19783817     -1.55248141
 Ti     11.08432363      5.15913192     -1.58883355
 Ti     17.66893902      5.16127300     -1.56595475
 Ti     11.08575948      8.12733818     -1.56890861
 Ti     17.68745030      8.12028738     -1.56060303
 Ti     11.11629116     14.03082356     -1.56258642
 Ti     17.68818458     14.03100085     -1.55812337
 Ti     11.09881007     11.08605676     -1.56207204
 Ti     17.69462097     11.07650451     -1.55489374
 Ti     11.10410228     16.98111534     -1.56242844
 Ti     17.67622831     16.99175535     -1.55176830
 Ti      1.30369970      2.19477698     -5.04772806
 Ti      1.31326858      5.12839073     -5.06048784
 Ti      1.30359635      8.09782824     -5.06656126
 Ti      1.29820627     14.00489532     -5.04681690
 Ti      1.30725828     11.07251972     -5.06745828
 Ti      1.18973891     16.97985252     -5.06112726
 Ti      7.88664190      2.17917051     -5.02767245
 Ti     14.46226053      2.18925818     -5.03217217
 Ti      7.90023798      5.11224747     -5.08518336
 Ti     14.48015323      5.11228181     -5.08395591
 Ti      7.89220098      8.10050586     -5.10119657
 Ti     14.47471673      8.10258285     -5.09878726
 Ti      7.90136460     14.00015542     -5.07435167
 Ti     14.48080143     14.05402072     -5.10816406
 Ti      7.90055760     11.08069982     -5.06893140
 Ti     14.49247153     11.08398312     -5.09432306
 Ti      7.79144382     16.97928002     -5.08718989
 Ti     14.46501303     16.99934982     -5.08067258
 Ti      4.50271475      0.67853286     -4.94553993
 Ti      4.59738169      3.66118026     -4.86025121
 Ti      4.58795066      6.64821928     -4.84268471
 Ti      4.60536881     12.54970432     -4.94445295
 Ti      4.55390161      9.59821891     -4.86271729
 Ti      4.49358231     15.51842562     -4.83720531
 Ti     11.07892972      0.67118858     -4.85049841
 Ti     17.67039963      0.74986841     -4.84503371
 Ti     11.18252030      3.65473495     -4.85592691
 Ti     17.76770073      3.67433079     -4.85125511
 Ti     11.15972404      6.63934225     -4.84267761
 Ti     17.67063633      6.63780116     -4.84905131
 Ti     11.17112152     12.54017942     -4.85760201
 Ti     17.76086193     12.53997692     -4.85494921
 Ti     11.16798488      9.57195295     -4.84076381
 Ti     17.76496603      9.55830793     -4.84740701
 Ti     11.15998408     15.52326962     -4.85603701
 Ti     17.68720513     15.52292102     -4.85539531
  O      4.50839834      0.71926992     -0.34010255
  O      4.51180337      3.65916205     -0.33721896
  O      4.51887021      6.64521145     -0.32875073
  O      4.51161413     12.54452216     -0.34718719
  O      4.51399177      9.60207771     -0.33527885
  O      4.50858683     15.51999133     -0.34330149
  O     11.09212688      0.71909360     -0.33393099
  O     17.67306178      0.71960864     -0.32624871
  O     11.08613898      3.66660444     -0.33859022
  O     17.67187301      3.67579707     -0.33129425
  O     11.08687446      6.64625509     -0.33282806
  O     17.67882754      6.64937818     -0.33545907
  O     11.09791677     12.54805853     -0.32934449
  O     17.68737917     12.54486418     -0.32962540
  O     11.08851999      9.59698890     -0.33086711
  O     17.68149603      9.59505575     -0.33078478
  O     11.10075215     15.51551655     -0.32912311
  O     17.68061647     15.52098124     -0.32755178
  O      2.52847458      2.19707998     -1.67679718
  O      2.52832193      5.15681189     -1.59992168
  O      2.53206906      8.11526864     -1.59912302
  O      2.53200488     14.03278665     -1.67630701
  O      2.53590867     11.07698556     -1.67230927
  O      2.52677125     17.00029427     -1.67740184
  O      9.11406052      2.19884860     -1.67864147
  O     15.66027481      2.20128230     -1.60682690
  O      9.11371744      5.15178411     -1.67959564
  O     15.68312353      5.15606203     -1.67034020
  O      9.11588751      8.11405535     -1.67463941
  O     15.69644398      8.11745240     -1.67484631
  O      9.12073918     14.04147867     -1.59814875
  O     15.69885201     14.03604208     -1.59316166
  O      9.11817370     11.07935990     -1.59758737
  O     15.69852913     11.07306338     -1.59923402
  O      9.11734449     16.99008436     -1.59691019
  O     15.68684695     16.99659036     -1.59685671
  O     -0.10072615      2.20175982     -1.60244580
  O     -0.09579378      5.15240906     -1.67670630
  O     -0.07514011      8.11249668     -1.67802483
  O     -0.07997509     14.03686181     -1.67843142
  O     -0.06251463     11.07923762     -1.67655237
  O     -0.08890155     16.99510939     -1.61109102
  O      6.53071700      2.19032508     -1.67172479
  O     13.06451304      2.19708269     -1.67898259
  O      6.52627547      5.15988572     -1.66892877
  O     13.06317794      5.16288646     -1.67592260
  O      6.53688575      8.12127107     -1.67584601
  O     13.06545909      8.11712948     -1.67680757
  O      6.53388118     14.03021317     -1.67708590
  O     13.11354058     14.03292781     -1.68743175
  O      6.54354296     11.07890128     -1.68159552
  O     13.07787612     11.07697217     -1.68239403
  O      6.51999909     16.98999569     -1.67025951
  O     13.08496487     16.98988190     -1.68200143
  O      4.53786602      0.70758103     -2.98954359
  O      4.54403684      3.67864201     -2.95059834
  O      4.54353763      6.63931244     -2.94590286
  O      4.54931403     12.55001857     -3.00414110
  O      4.54615327      9.59563606     -2.95107735
  O      4.54267882     15.51674688     -2.94921836
  O     11.04506561      0.70543087     -2.94757649
  O     17.62852426      0.71755324     -2.94208397
  O     11.12606359      3.67523189     -2.95208329
  O     17.64228330      3.67077609     -2.95163973
  O     11.04922967      6.64422526     -2.95127756
  O     17.63499851      6.63701585     -2.94918907
  O     11.04627626     12.55632668     -2.94631192
  O     17.63298724     12.55424168     -2.94694517
  O     11.04425365      9.59476593     -2.94705195
  O     17.71067856      9.59785626     -2.94637882
  O     11.11407381     15.51567955     -2.94738607
  O     17.62761844     15.51867240     -2.94770046
  O      1.16730567      0.72032719     -3.64614811
  O      1.24142946      3.67323106     -3.64559693
  O      1.25422791      6.63149921     -3.64836590
  O      1.24573761     12.55074781     -3.65661944
  O      1.24698371      9.58996293     -3.65482874
  O      1.24079256     15.51415465     -3.64850943
  O      7.84755798      0.65822843     -3.65317225
  O     14.42834009      0.70876926     -3.65114366
  O      7.75772666      3.67282632     -3.65992126
  O     14.41503644      3.67239459     -3.65396500
  O      7.84214381      6.64068554     -3.67133771
  O     14.41796467      6.63181367     -3.66446899
  O      7.92675950     12.55284276     -3.66165811
  O     14.51267915     12.55925359     -3.66583031
  O      7.92393007      9.59868971     -3.66747811
  O     14.42720808      9.60368487     -3.66342736
  O      7.85000805     15.50868029     -3.66170648
  O     14.51404225     15.51566398     -3.66595195
  O      5.75671982      2.16324301     -5.01435958
  O      5.75975303      5.15448081     -5.01530183
  O      5.76556015      8.14428322     -5.01539114
  O      5.75653567     14.03557632     -5.01636649
  O      5.78411909     11.08130282     -5.09072135
  O      5.76834411     16.97608362     -5.06744863
  O     12.34626893      2.16631666     -5.01136403
  O     18.92693223      2.16872457     -5.01182269
  O     12.35319463      5.15333855     -5.01211275
  O     18.92479343      5.15702773     -5.01288125
  O     12.38480073      8.10072512     -4.98445473
  O     18.93235633      8.05623231     -5.01259674
  O     12.35286853     14.03080392     -5.00936198
  O     18.92498483     14.03379252     -5.01470270
  O     12.37642473     11.06886562     -4.98555887
  O     18.93427013     11.04978872     -5.01564865
  O     12.37237753     16.98851532     -4.98794386
  O     18.92340113     17.02074082     -5.01352979
  O      3.22044698      2.16860736     -5.01483320
  O      3.22535877      5.15561492     -5.01428870
  O      3.22541749      8.14656077     -5.01556500
  O      3.21913862     14.03265332     -5.01720782
  O      3.22122825     11.05180552     -5.01514675
  O      3.19055941     16.98232112     -4.99293827
  O      9.80662525      2.17046481     -5.01076665
  O     16.39100653      2.17423529     -5.01482192
  O      9.80898175      5.15497252     -5.01507870
  O     16.39253663      5.14959923     -5.01645290
  O      9.91779221      8.13950322     -5.26757440
  O     16.39480123      8.14363750     -5.01513968
  O      9.93210408     14.03336686     -5.19536888
  O     16.50904620     14.03254601     -5.20296988
  O      9.94031990     11.07440600     -5.19705723
  O     16.52457610     11.06721736     -5.19701748
  O      9.89109481     16.97561302     -5.19278317
  O     16.48915131     16.99946280     -5.19553072
  O      1.25088733      0.71851802     -6.18411049
  O      1.24511498      3.66782190     -6.18930110
  O      1.25127594      6.62532430     -6.18717196
  O      1.25087407     12.55127117     -6.19242414
  O      1.24291261      9.58949157     -6.18831295
  O      1.24441005     15.50623474     -6.18118684
  O      7.75313584      0.71934483     -6.18526678
  O     14.41859379      0.72195880     -6.18694327
  O      7.83046563      3.64396538     -6.19141794
  O     14.34234357      3.65447390     -6.19246203
  O      7.75205245      6.62230557     -6.19408800
  O     14.42223371      6.61949175     -6.19834840
  O      7.75339785     12.55076102     -6.19457837
  O     14.33862573     12.56087697     -6.19719842
  O      7.82727799      9.60001139     -6.19093921
  O     14.41597948      9.59571130     -6.19876855
  O      7.75657171     15.49529594     -6.18846092
  O     14.33832771     15.52441085     -6.20041601
 Au      8.94097683      2.51998910      8.10474731
 Au      9.01089730      5.26096237      8.06202065
 Au      6.58868312      6.65417850      7.97444743
 Au      6.64778023      3.85633407      7.78999021
 Au      9.02768683      8.00564482      8.08579785
 Au      6.68757891      9.45030826      7.76350916
 Au      8.99539094     10.74053861      8.15191077
 Au     11.30612627      6.62822873      7.38420636

