439
Energy = -13269.08000253 au
 Ti      1.05281943      7.99334988      9.07367982
 Ti      2.92032455     10.58448638      8.71279169
 Ti      4.56802534     13.34050087      7.82290743
 Ti      9.18328834     17.61280031      7.81701971
 Ti      6.95486766     15.43505470      8.24203966
 Ti     11.64429197     19.31216334      7.50613096
 Ti      3.39899248      4.21792206      4.52050170
 Ti      7.04937441      0.10079783     -0.50265506
 Ti      5.94208170      6.23082023      4.05226529
 Ti     10.80448430      3.20446253     -0.06286674
 Ti      7.74887108      8.59037116      4.23488588
 Ti     13.25470767      4.94336179      0.11003701
 Ti     12.24990335     12.15387730      4.70192733
 Ti     16.87867092      7.99650837      2.51992848
 Ti      9.99198513     10.25731442      4.25135964
 Ti     15.20047946      6.30570823      1.37450726
 Ti     14.60156038     14.15773638      4.97159086
 Ti     18.26452932     10.16674967      3.82724067
 Ti      2.91102344      6.18004730      6.58937490
 Ti      4.92253126      8.61346486      6.56147212
 Ti      6.99656964     11.05522967      6.38387326
 Ti     11.41725898     15.00834881      6.62899478
 Ti      9.20633895     13.13905758      6.57624096
 Ti     13.62542915     16.77636874      6.55409353
 Ti      4.89228920      2.04369268      3.85680881
 Ti     10.15699302     -1.05759304     -2.03185258
 Ti      8.71905195      5.97284968      2.56467727
 Ti     15.59668345      3.20935538     -2.65305179
 Ti     11.68571256      6.20038709      2.43759483
 Ti     15.52466392      2.21138812      0.72481923
 Ti     15.19259816     10.39254676      4.18064854
 Ti     19.83922607      5.30907331      0.12561573
 Ti     13.05404654      8.56613815      3.75026225
 Ti     17.46526313      4.37006136      1.27195468
 Ti     17.73992480     12.59556190      5.60931629
 Ti     20.70640223      8.58655418      1.39973161
  O      1.50865487      6.46337204      5.42784522
  O      3.40240347      8.98003251      5.44062682
  O      5.67873537     11.03156511      4.89647320
  O     10.09053741     14.65371729      5.19685579
  O      7.88167917     12.91442816      5.04575590
  O     12.35354721     16.61999025      5.27379390
  O      3.94655678      2.68028623     -0.24677345
  O      8.52938406     -2.51440830     -1.94197887
  O      8.27386292      6.13446368      0.55490602
  O     11.88566949      0.11559141     -2.05898725
  O     10.09012898      7.15421109      2.08943945
  O     15.67434564      2.28067925     -1.19890607
  O     14.10875580      9.92250370      2.71891019
  O     17.96863448      4.66760203     -0.55767597
  O     12.37460590      7.95376781      1.92161152
  O     19.14477184      2.37630537     -4.24470895
  O     16.92521075     11.43919937      4.25207210
  O     19.21466383      6.68806416     -1.04112935
  O      2.99558697      4.41579827      6.39255332
  O      4.58497871      6.94172799      7.19570883
  O      6.54197944      9.44953505      7.03127392
  O      8.58790287     11.57912920      7.34891242
  O     10.79887566     13.54987187      7.44443791
  O     12.99025407     15.51547012      7.59244345
  O      3.20856183      2.35636504      4.24282155
  O     11.02379089     -3.93686906      0.47895276
  O      5.51081623      1.17617238      5.36210741
  O     16.07837056      0.47447281      0.87028758
  O     13.94103904      2.12615896      1.59538521
  O     14.25334167      9.05217909      5.11696946
  O     19.22838871      4.40939483      1.61488112
  O     12.37793073      6.77713713      4.07186393
  O     16.93714590      2.74903054      1.76288852
  O     17.80396554     11.50128179      7.12580881
  O     20.80791673      6.69078324      1.04516248
  O      1.97218991      6.77567987      8.16426901
  O      4.17265277      9.60537275      7.99824006
  O      5.83183968     12.20550930      7.34971404
  O     10.38521072     16.37552777      7.43864386
  O      8.26610604     14.26046357      7.84828720
  O     13.16617687     18.35567600      7.51460508
  O      5.18818067      3.85193601      3.99437592
  O      8.59878698      1.57397121     -0.59904021
  O      7.95790339      6.61355040      4.14833478
  O     12.84298871      3.24300315     -0.64648432
  O      9.62707608      8.50758564      4.17168862
  O     15.20596395      4.41372932      0.55750945
  O     14.15756075     11.74994585      4.80640340
  O     18.60008391      7.39901543      3.11826901
  O     11.90651265      9.99975679      4.08110559
  O     16.79174591      5.82065542      2.22680072
  O     16.15097450     13.47973704      5.67714888
  O     20.16062614      9.60089525      3.14452665
  O      1.98702400      9.30660773      9.83505115
  O      3.40203680     12.35809074      8.87756455
  O      5.44918524     14.57896206      8.87413608
  O     10.17027270     18.98397379      8.57383048
  O      7.87332015     16.92080654      8.88137805
  O     11.98519353     20.85153812      6.56787627
  O      4.17988251      6.05106544      4.71588094
  O      6.85817110      5.28314055      2.48314774
  O      6.05690108      7.88134987      4.95550718
  O     11.29058579      5.13261430      0.54462987
  O      8.19109244     10.24867008      5.02254880
  O     13.38774872      5.50979231      1.91196421
  O     12.77349418     13.77600221      5.51562994
  O     16.70620341      8.98575777      4.15634304
  O     10.56171901     11.81548386      5.36306633
  O     15.04637674      7.48197645      2.80173414
  O     14.90444029     15.82866805      5.59241453
  O     19.52953555     12.19933609      2.79827474
 Ti      0.12263722     10.20837059      6.79138202
 Ti      1.48876611     12.87490587      4.14176148
 Ti      4.26064492     14.66428707      4.45570432
 Ti      9.12991348     18.29220878      4.61093791
 Ti      6.35031865     17.34323183      5.12111705
 Ti     11.34844198     20.25467408      4.93017416
 Ti      3.37867589      6.26315003      2.17040905
 Ti      5.08599261      0.73745454     -3.87883686
 Ti      5.48270493      8.86947354      1.27434344
 Ti      9.39292815      4.58952635     -3.40171267
 Ti      8.11228517     10.70355088      1.29247182
 Ti     11.41477493      7.54301392     -2.09683129
 Ti     12.85234237     14.21264171      1.88758020
 Ti     16.23468105      8.93895381     -1.01641653
 Ti     10.87683529     12.18592306      1.31864378
 Ti     14.40989860      6.81963565     -2.15121083
 Ti     14.93710824     16.91618512      1.33700664
 Ti     17.82571874     11.38782662     -1.22351669
 Ti      0.99319730      7.74589150      4.26254004
 Ti      3.08870684      9.83851381      3.86830584
 Ti      5.28062370     11.66717052      3.32991956
 Ti      9.84857576     15.19298642      3.42596347
 Ti      7.63684756     13.55817992      3.02412696
 Ti     12.27528053     17.32053230      3.43929945
 Ti      4.12709865      4.26608429     -0.95023832
 Ti      8.66841148      0.57769023     -4.87088085
 Ti      6.14052473      5.90069175      0.89199673
 Ti     11.44208597      2.29307428     -4.78162995
 Ti      8.31756928      7.86478341     -0.38327540
 Ti     12.65663756      4.23298933     -2.71753668
 Ti     13.88575461     10.93697509      1.07273914
 Ti     18.49079817      3.86214444     -4.39841550
 Ti     11.14934958      8.65137477      0.68769111
 Ti     15.35963246      3.74485593     -5.65700955
 Ti     15.86086333     14.25890749      1.35244447
 Ti     17.93971009      5.75740617     -2.14692735
  O     -0.16072392      8.74678398      8.07758946
  O      1.73624133     10.71517394      7.35964852
  O      3.94112778     14.09441226      6.16566272
  O      8.18648303     17.79933397      6.15626969
  O      6.08432777     16.29890998      6.72245015
  O     10.64078530     18.82526635      5.99219563
  O      2.66974836      4.80998919      2.95006573
  O      4.16913004      1.50184866     -5.19143402
  O      5.20606072      7.08096649      2.41066142
  O      9.55072834      3.38281528     -1.67858154
  O      7.25555049      8.97865332      2.54919699
  O     12.51771609      5.74828208     -1.58584917
  O     11.81785182     12.67722272      3.02617441
  O     16.39790629      7.73417569      0.57951663
  O      9.61483354     10.86006073      2.55094135
  O     14.27984636      6.54354770     -0.30946949
  O     14.26106582     14.16244220      3.11656556
  O     17.40913648      9.87283343      2.07194369
  O      2.67542837      7.80232646      3.11666710
  O      4.56783887      9.93021881      2.71242558
  O      7.00846686     11.72570808      2.53994068
  O     11.73723021     15.42188294      2.79702686
  O      9.39045200     13.46921781      2.63640179
  O     13.94223521     17.25378827      2.87714404
  O      6.14804881      4.48336788     -0.24234669
  O      9.54261403      0.39234538     -7.77045443
  O     10.08825425      6.20847180     -2.57702718
  O     14.42119347      3.70616943     -7.12108599
  O     10.15979014      7.23651949     -0.48983718
  O     14.81495847      2.44394296     -4.23565220
  O     15.28295369     10.07273059      0.16411894
  O     19.30654760      5.28069349     -3.36386933
  O     12.28839307      8.34702865     -0.70693231
  O     17.11621218      3.94972630     -5.84232244
  O     16.45094048     14.88015687     -0.15585693
  O     18.91704565      7.80259319     -3.12832439
  O      0.00340185      8.89943838      5.34849911
  O      3.08704383     11.63109006      4.14904335
  O      5.43402586     13.54328193      3.52967211
  O     10.16778124     17.10714775      3.77279675
  O      7.96206296     15.28583330      3.52935864
  O     12.43600287     19.20070623      4.06612403
  O      4.25298843      5.58440135      0.63708281
  O      7.09927582      1.24252424     -3.99024375
  O      6.45233965      7.57922561      0.07789614
  O      9.91693303      2.82438155     -3.86714717
  O      9.14867551      9.20914745      0.48178194
  O     14.49702579      4.71918188     -2.72022201
  O     15.13882974     12.04832226      1.76291719
  O     16.37414689      6.70324566     -2.23138145
  O     11.73573945     10.40394416      0.95442784
  O     17.11214137      4.08731120     -3.04561892
  O     16.07447767     15.82961947      2.23140476
  O     21.27258083     10.81393658     -2.58444725
  O      0.39413012     11.26116948      5.10974175
  O      0.23010873     13.72499088      5.20732467
  O      2.75372323     14.25210971      3.52447454
  O      7.54404410     17.96161943      3.69801703
  O      5.11942802     16.31253293      4.07696440
  O      9.68817746     20.00060628      3.99252764
  O      2.22047427      4.80748818     -0.94809296
  O      5.20686699     -0.85959354     -4.45639385
  O      3.93490874      8.43388847      0.55502514
  O      7.88781243      3.78952919     -3.81078730
  O      6.61859903     10.08461347      0.22944183
  O     11.49307775      4.81450458     -3.83775422
  O     12.92069326     12.53363051      0.87640583
  O     14.72781743      8.57438329     -1.99927135
  O      9.06653929     11.88331917      0.24407275
  O     12.84899193      7.40718921     -3.27937497
  O     13.86520031     15.28485141      0.71313213
  O     16.30536120     10.40183855     -2.39408560
 Ti     -2.10413084     11.36571000      0.93497171
 Ti      0.20498683     13.20239387      1.15496432
 Ti      2.50239760     15.05640578      1.35165477
 Ti      7.10604190     18.75134391      1.76292272
 Ti      4.80355565     16.90427691      1.54926423
 Ti      9.40817731     20.60212615      1.97476485
 Ti      1.65392070      7.04463470     -2.35394398
 Ti      5.40512519      2.75831838     -5.61950596
 Ti      3.95692766      8.90813191     -2.13745406
 Ti      7.71143634      4.61748351     -5.40682611
 Ti      6.25974605     10.75965692     -1.95457926
 Ti     10.01310565      6.46835890     -5.23181009
 Ti     10.88178829     14.42874130     -1.51293229
 Ti     14.62091593     10.14044238     -4.81017637
 Ti      8.57310718     12.58959177     -1.73674418
 Ti     12.31213581      8.30772007     -5.01595809
 Ti     13.16311658     16.29765778     -1.30916662
 Ti     16.92122406     11.99018941     -4.59488145
 Ti      0.97100798     10.05267731     -0.46750021
 Ti      3.28677159     11.88667976     -0.22438874
 Ti      5.59512545     13.73487950     -0.01427081
 Ti     10.17592669     17.44754597      0.37448930
 Ti      7.88751037     15.60135972      0.15834011
 Ti     12.48560035     19.30807363      0.59713101
 Ti      4.71520604      5.76254908     -3.73725813
 Ti      8.47619932      1.46456892     -6.98067718
 Ti      7.02174976      7.62158792     -3.52614098
 Ti     10.78406657      3.31367782     -6.78874281
 Ti      9.33565268      9.46686425     -3.29930184
 Ti     13.09669393      5.14829835     -6.58365835
 Ti     13.94473664     13.13313102     -2.89071305
 Ti     17.69338796      8.84018271     -6.16302281
 Ti     11.64533018     11.30422999     -3.09023323
 Ti     15.40077478      6.98842282     -6.37280973
 Ti     16.23169916     14.98456982     -2.67542956
 Ti     19.99026163     10.69535508     -5.94175968
 Ti     -1.77743971     13.63598076     -1.84885173
 Ti      0.50553569     15.46832000     -1.65675735
 Ti      2.80716637     17.33274619     -1.44675550
 Ti      7.40211236     21.01896159     -1.00840892
 Ti      5.12185821     19.18953330     -1.23855628
 Ti      9.64951637     22.95487107     -0.75588175
 Ti      1.96937540      9.31928161     -5.11431630
 Ti      5.72547900      5.03392972     -8.39552449
 Ti      4.24236022     11.16780954     -4.96293168
 Ti      7.99461629      6.87091887     -8.24204605
 Ti      6.55692029     13.04718288     -4.76099906
 Ti     10.31256083      8.74936474     -8.04024397
 Ti     11.15628102     16.71622133     -4.32429861
 Ti     14.94082443     12.46827759     -7.62963353
 Ti      8.88736305     14.89014933     -4.52609879
 Ti     12.64192661     10.59884734     -7.83396283
 Ti     13.40648693     18.65505382     -4.06947967
 Ti     17.22912576     14.30726682     -7.38929169
 Ti     -1.10512945     10.55597690     -3.46276346
 Ti      1.29049918     12.32142536     -3.22490488
 Ti      3.61222280     14.18657471     -2.99335151
 Ti      8.18360474     17.90641730     -2.67175524
 Ti      5.88113815     16.06074631     -2.78463538
 Ti     10.45650912     19.78856999     -2.31299159
 Ti      2.66416253      6.21673879     -6.65950254
 Ti      6.48527838      1.95963306     -9.93514301
 Ti      5.04151707      8.01574966     -6.50440673
 Ti      8.81289813      3.72617025     -9.78178380
 Ti      7.35258401      9.88995418     -6.27009292
 Ti     11.06225322      5.64038820     -9.52148727
 Ti     11.94306321     13.57615358     -5.87050977
 Ti     15.70111555      9.27208947     -9.15330744
 Ti      9.63792563     11.71624036     -6.06473985
 Ti     13.38718941      7.40302729     -9.36013128
 Ti     14.25649944     15.44679836     -5.65221056
 Ti     17.97825589     11.18432603     -8.90558937
  O      0.15130670      8.60657180      0.51629839
  O      2.43979810     10.44016348      0.72542602
  O      4.76774628     12.29781618      0.94082411
  O      9.34547076     15.99674485      1.34656378
  O      7.06221557     14.15145147      1.14715249
  O     11.65822156     17.85633866      1.56228497
  O      3.90688470      4.30494348     -2.76046028
  O      7.66180797      0.00492469     -6.03447206
  O      6.19394316      6.15265738     -2.55262710
  O      9.95824735      1.85509269     -5.82875014
  O      8.51258836      8.01160400     -2.33686418
  O     12.27308660      3.71043468     -5.62509432
  O     13.10849875     11.69076041     -1.92113138
  O     16.86328826      7.38626396     -5.20653713
  O     10.80826123      9.85351410     -2.12688827
  O     14.56613118      5.54735601     -5.41364241
  O     15.41739187     13.54308858     -1.71206643
  O     19.17393224      9.24947723     -4.99047349
  O     -0.18318776     11.39492268      0.45316329
  O      2.13832581     13.21156574      0.72939797
  O      4.44089338     15.05742687      0.93786928
  O      9.02129312     18.78818097      1.29055722
  O      6.72642512     16.93693070      1.08260401
  O     11.32527470     20.64637217      1.50251102
  O      3.57283546      7.09672772     -2.83130903
  O      7.32646273      2.79312991     -6.03246709
  O      5.86831306      8.94255973     -2.62270436
  O      9.62000546      4.65174673     -5.88934303
  O      8.17404990     10.79005471     -2.40958448
  O     11.92890569      6.49546051     -5.69001947
  O     12.80571399     14.45801503     -1.92587332
  O     16.55368582     10.15727349     -5.20122861
  O     10.50133369     12.60851194     -2.13401817
  O     14.24815616      8.30860802     -5.41628378
  O     15.09666667     16.30219553     -1.71415974
  O     18.84770569     12.01665036     -4.98863887
  O     -1.65901327     13.08277327      1.82842542
  O      0.61825144     14.95510749      1.97090294
  O      2.93116567     16.79185467      2.16923248
  O      7.53453279     20.49714135      2.59111813
  O      5.24541545     18.63680679      2.37444702
  O      9.84736037     22.32266688      2.86338334
  O      2.09500625      8.77524762     -1.53810527
  O      5.82394170      4.51630360     -4.80108324
  O      4.40206772     10.63253918     -1.32303924
  O      8.12992349      6.36910626     -4.58760398
  O      6.70877917     12.47905143     -1.12444815
  O     10.42793240      8.21401218     -4.38015507
  O     11.30097748     16.17386221     -0.70528789
  O     15.05210197     11.88376685     -3.99408390
  O      9.01062664     14.32529857     -0.92314361
  O     12.73482761     10.05781116     -4.18142422
  O     13.59612233     18.02948295     -0.48272637
  O     17.33629903     13.74781199     -3.76560402
  O     -0.54370267      9.71400019     -1.78828554
  O      1.78016458     11.54982785     -1.54717136
  O      4.08306557     13.39817705     -1.33305954
  O      8.66652444     17.11275211     -0.96739717
  O      6.38174515     15.24600060     -1.12933601
  O     10.98395872     18.94739572     -0.70640181
  O      3.17619764      5.44578776     -4.99610671
  O      6.94100394      1.15231138     -8.27244597
  O      5.53022712      7.25056704     -4.82992590
  O      9.24246462      2.99279642     -8.07828265
  O      7.79504110      9.15562493     -4.58053105
  O     11.54523124      4.85001721     -7.86233293
  O     12.39137089     12.84972048     -4.15581096
  O     16.14536060      8.54786457     -7.44007089
  O     10.08738883     11.00076862     -4.36531128
  O     13.89120221      6.64953790     -7.68781426
  O     14.73066036     14.65512111     -3.98082422
  O     18.44696286     10.40407604     -7.22797440
  O     -2.62985880     12.20381809     -0.67440563
  O     -0.29154512     14.00036255     -0.50162536
  O      2.01509066     15.84172269     -0.30076198
  O      6.61031409     19.54955750      0.11580371
  O      4.30947033     17.69787298     -0.09308463
  O      8.91371328     21.40105810      0.33527584
  O      1.12911252      7.80611850     -4.01507164
  O      4.92134449      3.53987888     -7.29034687
  O      3.41996933      9.75139346     -3.76249282
  O      7.21724807      5.40165247     -7.07613685
  O      5.77260600     11.55568416     -3.60412392
  O      9.51709906      7.25348722     -6.87695437
  O     10.42016186     15.19061831     -3.21898148
  O     14.17936727     10.89610258     -6.50530247
  O      8.12013189     13.34899636     -3.43194365
  O     11.83329490      9.10403783     -6.67006250
  O     12.67456759     17.08776723     -2.97129796
  O     16.47874030     12.74263556     -6.29658282
  O      0.74602943     10.69437373     -4.04214779
  O      3.07321565     12.56193001     -3.83250167
  O      5.40109377     14.42641307     -3.62360319
  O      9.97620744     18.11401303     -3.20246405
  O      7.67524757     16.28179086     -3.48980875
  O     12.25565521     19.96559966     -3.04410738
  O      4.50661083      6.39233499     -7.32432179
  O      8.26069170      2.09716071    -10.60509765
  O      6.83279000      8.25463244     -7.11674769
  O     10.58261626      3.96631010    -10.39318167
  O      9.14975981     10.06388957     -6.89974296
  O     12.84115429      5.77287489    -10.19125565
  O     13.73561994     13.80092620     -6.48511218
  O     17.48398385      9.51378513     -9.76580410
  O     11.45243919     11.92453204     -6.68618585
  O     15.16894539      7.64351387     -9.98270989
  O     16.05206449     15.62720457     -6.26673638
  O     19.80576338     11.38077037     -9.55233291
  O     -0.69612207     12.35399980     -2.77781031
  O      1.62924062     14.21704978     -2.56811595
  O      3.95441517     16.08650882     -2.35729631
  O      8.52687391     19.76935203     -1.93847111
  O      6.21098381     17.90446430     -2.14896811
  O     10.81040065     21.62078320     -1.69422911
  O      3.06187572      8.05294372     -6.05746477
  O      6.81818206      3.75773256     -9.34310493
  O      5.38254959      9.91817873     -5.85086967
  O      9.13198649      5.61664599     -9.13442944
  O      7.69811505     11.82014228     -5.91176755
  O     11.46151005      7.48548873     -8.92225303
  O     12.30794396     15.46278915     -5.43885289
  O     16.05549821     11.17108403     -8.72417333
  O     10.01156981     13.60918254     -5.65409229
  O     13.76037018      9.30545235     -8.93690870
  O     14.57286133     17.32697981     -5.20767468
  O     18.35292400     13.03482659     -8.49757937
  O     -3.25676254     13.23437265     -2.90895060
  O     -0.96832800     15.08329366     -2.70155692
  O      1.33522682     16.92641287     -2.49320705
  O      5.94106632     20.63186725     -2.07760578
  O      3.63481445     18.78458010     -2.27996965
  O      8.23786416     22.47774523     -1.85527282
  O      0.45119144      8.98971029     -6.15135040
  O      4.25345988      4.63981893     -9.47543512
  O      2.76756505     10.76935661     -5.98796333
  O      6.48856712      6.52440845     -9.23438051
  O      5.03782384     12.68277389     -5.74012186
  O      8.83788005      8.32751270     -9.06917830
  O      9.64787307     16.38661684     -5.32109975
  O     13.40997647     12.09420370     -8.60547228
  O      7.39673840     14.49298515     -5.56388897
  O     11.14823221     10.19152537     -8.85551545
  O     11.94070018     18.22187650     -5.10873388
  O     15.71311972     13.94759765     -8.39809457
 Au      6.27103199      5.11604179      6.66448122
 Au     10.43022728      7.39359209      7.49948252
 Au      7.73426244      3.52668449      5.06834953
 Au     12.56147255      9.02614220      6.74224656
 Au     11.10932260      5.77148849      5.44846088
 Au      8.99737688      5.15604230      6.85751161
 Au      6.86137739     14.62382129      5.72021599
 Au     10.26014345     10.06570710      7.56317242
