#B3LYP/6-31+G(d) OPT FREQ

439, Energy = -13269.39505615 au

0 1
 Ti      1.58203265      0.55091736      3.60593705
 Ti      1.49676309      3.27296401      3.54526123
 Ti      1.68760877      6.01868945      3.92823015
 Ti      1.26664599     11.82951855      3.98553139
 Ti      1.41289973      8.86289094      3.94539766
 Ti      1.57144642     15.04432681      3.88471650
 Ti      8.57076450      1.10518221      4.16472124
 Ti     14.62356264      2.07480527      4.65001335
 Ti      7.87119895      3.85626613      4.24350574
 Ti     14.31341243      4.82843927      4.65349758
 Ti      7.91838535      6.79232511      4.12686320
 Ti     14.14223916      7.69671014      4.53004702
 Ti      7.45991333     12.64297227      4.12939927
 Ti     13.81183044     13.65386963      4.54317012
 Ti      7.65827338      9.72142818      4.10917813
 Ti     14.02108959     10.63414534      4.46529222
 Ti      7.55220990     15.66996531      4.25541833
 Ti     14.19433557     16.84942239      4.30043223
 Ti      4.95802114      1.81119571      4.30651646
 Ti      4.75277981      4.81619907      4.39348679
 Ti      4.65456635      7.79475836      4.41486237
 Ti      4.26891671     13.77791330      4.50603041
 Ti      4.38712897     10.77579452      4.41232860
 Ti      4.39680956     16.78102528      4.49104866
 Ti     11.20058613      2.67813080      5.46579550
 Ti     17.58068488      3.89235698      5.28961138
 Ti     11.09248101      5.38405389      4.49336105
 Ti     17.38332420      6.75688563      5.11814104
 Ti     10.86946151      8.80852656      4.49080174
 Ti     17.13955698      9.63389878      5.12926402
 Ti     10.49067626     14.42013811      5.38469582
 Ti     17.07813557     15.39710223      5.02062935
 Ti     10.70057721     11.58366143      4.82603269
 Ti     16.91969671     12.52872565      5.15529957
 Ti     10.95957446     17.30006859      5.60799943
 Ti     17.07650941     18.43149318      5.24056327
  O      4.71895710      0.46197825      3.03455662
  O      4.95159508      3.45731686      2.82316613
  O      4.65647705      6.43930970      2.86960148
  O      4.18419673     12.20368221      2.95169775
  O      4.41931037      9.29444525      2.89338836
  O      3.93672265     15.20034699      3.03038749
  O     10.78854041      1.02490916      4.00390292
  O     16.37768675      1.97843322      3.68044688
  O     11.35227210      3.92726976      3.51243007
  O     17.26291959      5.11662345      3.67808341
  O     11.02641286      7.07608190      3.35933383
  O     17.01466344      8.03369323      3.59659408
  O     10.55787735     12.99569237      3.43377296
  O     16.70262169     13.93578275      3.61063783
  O     10.79060426     10.07309640      3.21956377
  O     16.69800136     10.94662796      3.60624060
  O     10.64884453     15.91422288      4.00911356
  O     16.38461310     16.92672879      3.74826547
  O      4.41641122      0.58170954      5.52589456
  O      4.87767818      3.39294138      5.44080613
  O      4.64831397      6.30899276      5.51060820
  O      4.49620818      9.28646493      5.52273297
  O      4.26243762     12.21254449      5.59085421
  O      3.94419086     15.19822553      5.52709731
  O     11.02484034      1.19977527      6.55098330
  O     17.65833420      2.18844239      6.09957183
  O     11.02930810      4.34085265      6.08711237
  O     17.57875713      5.28696721      6.32832309
  O     17.40392886      8.13164284      6.22737062
  O     10.39202262     12.76076637      6.17559577
  O     16.93787269     14.02143471      6.20488085
  O     10.70965622     10.00951202      5.82916303
  O     17.09019361     11.02237883      6.24035940
  O     10.41317313     15.83058823      6.55965628
  O     17.49328201     16.93811898      6.08286882
  O      2.67235726      1.89888817      4.07999113
  O      2.83170835      4.56011066      4.14568666
  O      2.67657561      7.49579622      4.40206652
  O      2.21307582     13.39278847      4.40388643
  O      2.43058009     10.39988025      4.41207212
  O      2.20438731     16.78335856      4.39538902
  O      9.29104353      2.74089215      4.89060153
  O     15.58842911      3.70141958      5.36261920
  O      9.14768446      5.37425829      4.47463124
  O     15.36454514      6.38155028      5.12668710
  O      8.96905974      8.33474081      4.55737351
  O     15.13694031      9.21933603      5.12475461
  O      8.57275535     14.17445432      4.80037134
  O     14.82573205     15.26741420      4.96596937
  O      8.73418263     11.25046503      4.47802859
  O     14.92859677     12.22498837      5.12088217
  O      8.66738588     17.24328610      4.96115105
  O     15.13906737     18.34986623      5.60195106
  O      0.07696408      1.64916570      3.84388664
  O      0.54130603      4.33059654      4.71240653
  O      0.30448542      7.09270552      4.48040724
  O     -0.22331995     12.45957058      4.64301738
  O      0.01237325      9.85073864      4.48138505
  O     -0.05985807     15.28856712      4.55043466
  O      6.93666957      2.05037462      4.40441307
  O     13.17116054      3.15694473      5.21231603
  O      6.69464660      5.27908936      4.30564223
  O     12.91301174      6.08574029      4.88661216
  O      6.54397378      8.10521635      4.31049593
  O     12.78156605      8.92660553      4.72142867
  O      6.15016912     13.95745830      4.33054791
  O     12.35701554     14.26258309      5.28740281
  O      6.31006639     11.02463004      4.31516778
  O     12.59707921     11.72230140      4.72156167
  O      6.14848565     16.52987468      4.88734793
  O     12.75425829     17.09145978      5.36476859
 Ti      1.51508457      1.51968866      0.26413142
 Ti      2.01826615      4.53829443      0.67083611
 Ti      1.34802103      7.48034188      0.67911824
 Ti      1.04885262     13.30745441      0.79647872
 Ti      1.16672741     10.40395983      0.74307659
 Ti      0.87293057     16.29863967      0.64010215
 Ti      8.42957235      2.27028460      0.99244990
 Ti     14.74647540      3.32850413      1.22811427
 Ti      8.16726456      5.26969745      0.95217579
 Ti     14.40939742      6.23363908      1.34680416
 Ti      7.83532603      8.23029697      0.88235051
 Ti     14.12302126      9.14517933      1.19728894
 Ti      7.37414412     14.16909801      0.88751331
 Ti     13.66200588     14.96604695      1.19842594
 Ti      7.51556676     11.19215629      0.90058775
 Ti     13.88568628     12.07348014      1.33147103
 Ti      8.16333191     17.00119166      1.06967773
 Ti     13.41093655     18.27532664      0.38497884
 Ti      5.00380544      0.63399679      0.58184980
 Ti      5.26091565      3.59465620      1.02776996
 Ti      4.74956053      6.52769906      1.04837977
 Ti      4.26516450     12.29319824      1.11726020
 Ti      4.41574884      9.36674296      1.05679164
 Ti      4.13826620     15.27711662      1.12959596
 Ti     11.75769115      1.76895179      2.59923064
 Ti     17.65480425      2.18529916      2.34229567
 Ti     11.42105714      4.20171737      1.06826070
 Ti     17.64782893      5.12893663      1.88763221
 Ti     11.14648113      7.19106107      1.48688298
 Ti     17.31330073      8.09563798      1.81012212
 Ti     10.55860927     13.06637338      1.61249952
 Ti     16.98277939     14.02790657      1.77707986
 Ti     10.85276006     10.16380528      1.22400434
 Ti     17.04479519     11.03872219      1.81864736
 Ti     11.33384755     16.19930408      2.38414441
 Ti     16.42513816     16.92293737      1.80798460
  O      1.32140612      0.38849024      1.83772545
  O      2.20939313      3.07355637      1.75002307
  O      1.89186303      5.89437637      2.06443599
  O      1.41332445     11.81470879      2.15302064
  O      1.64702906      8.83659296      2.14717903
  O      1.17580665     14.80060987      2.15372256
  O      8.19566117      0.85897821      2.39321352
  O     13.55004832      1.26167760      3.45061370
  O      8.04948929      3.77316447      2.40412328
  O     14.50080690      4.56153282      2.86608303
  O      7.95900457      6.76755234      2.31772812
  O     14.25626773      7.56852816      2.71708950
  O      7.33871833     12.58765265      2.32977592
  O     13.70496613     13.39797539      2.70427117
  O      7.64567521      9.67123331      2.30646754
  O     14.01741694     10.48280933      2.64834296
  O      7.41284009     15.74556623      2.45979929
  O     13.23751576     16.06385729      2.88861110
  O      6.29749423      2.03927903      0.95532070
  O      6.22344273      5.12401659      0.96336202
  O      5.89579036      8.01618950      0.88878936
  O      5.41880356     13.79442921      0.96080781
  O      5.60026749     10.87567282      0.88728900
  O      5.35890893     16.60919187      0.96684596
  O     12.85030239      2.91156539      1.51819968
  O     18.91590289      3.69789405      2.17554986
  O     12.51985432      5.74477807      1.43761217
  O     18.69485222      6.76338324      1.69303418
  O     12.23756112      8.72516454      1.36519400
  O     18.43623914      9.69540844      1.68100838
  O     11.67835868     14.66282674      1.44921417
  O     17.95349610     15.60347806      1.60276958
  O     11.96527594     11.65784868      1.35606287
  O     18.20068670     12.60685409      1.68087110
  O     11.97636196     17.96091530      1.67099353
  O     17.64195340     18.33511021      1.59025959
  O      3.40331653      1.41287946      0.24648960
  O      3.77946836      4.80707071      0.56219726
  O      3.32864031      7.70666891      0.70689728
  O      2.88860073     13.53253870      0.78841105
  O      3.07353275     10.63059213      0.71994001
  O      2.65852022     16.24022497      0.79984466
  O     10.33567732      2.59411806      1.44795117
  O     16.61303295      3.47376119      1.44359001
  O     10.07364619      5.49671153      1.20493763
  O     16.29234423      6.38216612      1.44183325
  O      9.76563225      8.42567554      1.18924132
  O     16.00011482      9.36694507      1.35753431
  O      9.13550358     14.08877522      1.28106411
  O     15.45381200     15.17893508      1.50736554
  O      9.45936894     11.36176315      1.20341931
  O     15.74786462     12.29883058      1.36279083
  O      9.77437972     16.68663736      1.52842906
  O     14.88246255     17.72442137      1.59915319
  O      1.17634151     -0.02275689     -0.63027343
  O      1.65622245      3.30847582     -0.79773809
  O      1.41972755      6.21808041     -0.70903452
  O      0.87771270     12.03409348     -0.57363101
  O      1.11442316      9.11860206     -0.64416203
  O      0.62627826     14.95259960     -0.63527808
  O      8.59566258      0.80717238     -0.08434158
  O     14.81397836      1.88406171      0.14399245
  O      8.36586674      3.77411190     -0.16982700
  O     14.65678568      4.71314525      0.11349154
  O      8.05906276      6.70591484     -0.23963265
  O     14.34382937      7.55839154      0.09433053
  O      7.47720645     12.62421475     -0.25821534
  O     13.71721747     13.46556770      0.08497690
  O      7.79902105      9.68962692     -0.25447576
  O     14.02926013     10.54386778      0.06810741
  O      7.48867658     15.67711396     -0.16197285
  O     13.39620229     16.39026658      0.00588346
 Ti      2.37134659      0.11952143     -2.75349201
 Ti      2.03624289      3.05916065     -2.74603941
 Ti      1.69663423      5.99825166     -2.76956598
 Ti      1.02065012     11.87683541     -2.79298844
 Ti      1.36250214      8.93713049     -2.78834301
 Ti      0.67706384     14.81826089     -2.80098904
 Ti      8.92028809      0.87111302     -2.35589310
 Ti     15.42901883      1.63620456     -1.95714902
 Ti      8.56570218      3.82026597     -2.36571757
 Ti     15.08106946      4.58571813     -1.96713908
 Ti      8.23795795      6.76239164     -2.39798058
 Ti     14.75760046      7.52645120     -2.00598129
 Ti      7.57155384     12.64253067     -2.37855925
 Ti     14.09365534     13.39612379     -2.00884181
 Ti      7.91068512      9.70187193     -2.38790818
 Ti     14.41829356     10.45906983     -2.00621732
 Ti      7.21028608     15.57637637     -2.40793575
 Ti     13.74803517     16.33548653     -2.01402448
 Ti      5.47344028      1.96245298     -2.39561052
 Ti      5.13044911      4.90641135     -2.36568632
 Ti      4.79246955      7.85161396     -2.37207158
 Ti      4.10614250     13.72055314     -2.42929801
 Ti      4.45523168     10.79308493     -2.42297069
 Ti      3.75327594     16.67372234     -2.43063597
 Ti     11.98391960      2.71955413     -2.00065099
 Ti     18.49298360      3.48667448     -1.57511236
 Ti     11.63703034      5.66917834     -2.01181409
 Ti     18.16422022      6.43179251     -1.59720622
 Ti     11.29437033      8.61758814     -2.00126581
 Ti     17.84041940      9.37309864     -1.60016009
 Ti     10.64227348     14.48502102     -2.01188704
 Ti     17.15817123     15.24428367     -1.61641289
 Ti     10.96510098     11.55796416     -2.00306144
 Ti     17.50567599     12.31031500     -1.60342290
 Ti     10.28934926     17.41413624     -2.02182435
 Ti     16.80390044     18.18379528     -1.62018352
 Ti      2.48746032      1.60783290     -6.03708394
 Ti      2.15880431      4.52294312     -6.05856853
 Ti      1.80653419      7.47138969     -6.07463724
 Ti      1.11760814     13.33818105     -6.07400882
 Ti      1.46657041     10.42657593     -6.08476206
 Ti      0.66723254     16.28072941     -6.10419555
 Ti      9.01520935      2.35263568     -5.62533742
 Ti     15.53418883      3.12220597     -5.23861995
 Ti      8.69326963      5.26784457     -5.69125231
 Ti     15.21733014      6.02790385     -5.29853028
 Ti      8.34103770      8.23521180     -5.71720563
 Ti     14.86737041      8.99759603     -5.32315559
 Ti      7.66697664     14.09628996     -5.70859981
 Ti     14.18642773     14.90989477     -5.35105478
 Ti      8.00312110     11.19628242     -5.69396533
 Ti     14.54028619     11.96105398     -5.32711152
 Ti      7.21459096     17.04280444     -5.73741673
 Ti     13.82888238     17.83356298     -5.33390556
 Ti      5.82844303      0.47087790     -5.73992448
 Ti      5.57266851      3.44415751     -5.65862727
 Ti      5.21719836      6.41002746     -5.65113960
 Ti      4.55875804     12.27436129     -5.77043311
 Ti      4.84383371      9.33640267     -5.68253133
 Ti      4.09858315     15.20987940     -5.67945549
 Ti     12.34410820      1.22283118     -5.25375178
 Ti     18.87028800      2.06232787     -4.85636230
 Ti     12.10247250      4.19837237     -5.26248252
 Ti     18.62928890      4.97845743     -4.86607111
 Ti     11.73428806      7.16029918     -5.26009188
 Ti     18.19056456      7.91085155     -4.87905807
 Ti     11.06478861     13.02297059     -5.29305200
 Ti     17.59853359     13.78392420     -4.89832181
 Ti     11.40357839     10.07420734     -5.26700360
 Ti     17.94660847     10.82267948     -4.88107939
 Ti     10.70903425     15.98478067     -5.30162640
 Ti     17.18092632     16.73837519     -4.91262310
  O      5.55550104      0.49484524     -1.14246067
  O      5.21907787      3.41542155     -1.14871637
  O      4.88062111      6.38224801     -1.14932606
  O      4.19301142     12.24126165     -1.18689702
  O      4.53458345      9.31876297     -1.16552351
  O      3.84604085     15.19642990     -1.19264809
  O     12.08307284      1.25511733     -0.74457575
  O     18.60770497      2.01574782     -0.34535122
  O     11.73690477      4.18220443     -0.75894393
  O     18.26531585      4.95201016     -0.35984703
  O     11.39307045      7.14195379     -0.76261127
  O     17.92893936      7.90648596     -0.37303441
  O     10.72201254     13.00547541     -0.77722034
  O     17.25600195     13.76343602     -0.38542569
  O     11.05370508     10.07309934     -0.76992710
  O     17.59101106     10.83271720     -0.37756479
  O     10.38199835     15.95337702     -0.78625496
  O     16.90536057     16.71882311     -0.39320993
  O      3.50112779      1.73903592     -2.59927682
  O      3.15448506      4.67863254     -2.53194675
  O      2.81638042      7.61769637     -2.54032228
  O      2.13729182     13.49584482     -2.63616631
  O      2.48239051     10.56028476     -2.62255611
  O      1.78934956     16.44286858     -2.64699505
  O     10.03079323      2.50148432     -2.20928917
  O     16.51696367      3.25977126     -1.74811821
  O      9.68937513      5.43459797     -2.21964024
  O     16.20204792      6.19762861     -1.81954323
  O      9.34901889      8.37725306     -2.22397153
  O     15.87341200      9.14073194     -1.83265382
  O      8.66452161     14.26523592     -2.16615292
  O     15.18720343     15.01963874     -1.76976779
  O      9.00414006     11.32266604     -2.15633783
  O     15.52953929     12.07649844     -1.76643849
  O      8.32044757     17.19368811     -2.17448297
  O     14.83350573     17.95897731     -1.78357292
  O      0.88925264      1.43971500     -2.68150661
  O      0.55768869      4.37144008     -2.76471263
  O      0.23628478      7.31408457     -2.77420084
  O     -0.45289091     13.19819725     -2.79370948
  O     -0.09401386     10.26240007     -2.78140182
  O     -0.80749457     16.13534156     -2.73641490
  O      7.46992201      2.19459651     -2.35606347
  O     13.94798215      2.95603852     -1.97457700
  O      7.12229658      5.14373654     -2.36296767
  O     13.60385513      5.90180467     -1.98102094
  O      6.79111743      8.08653082     -2.37864634
  O     13.26488385      8.83651993     -1.99115094
  O      6.10558793     13.95553834     -2.39882892
  O     12.62977335     14.71827351     -2.01768336
  O      6.45638309     11.02513415     -2.39338264
  O     12.93559521     11.77798562     -2.00538880
  O      5.74949191     16.89386028     -2.40224055
  O     12.25951803     17.65209396     -2.02335385
  O      5.74362344      0.49650643     -3.78540410
  O      5.40419739      3.44822790     -3.75559664
  O      5.06139494      6.38898556     -3.76034195
  O      4.38775770     12.26097186     -3.83690476
  O      4.72277004      9.32582209     -3.77474056
  O      4.03518458     15.20685098     -3.79189637
  O     12.19341440      1.24584491     -3.35633435
  O     18.71933818      2.01830463     -2.95918239
  O     11.93091072      4.20511980     -3.36544561
  O     18.39238096      4.95336464     -2.97728162
  O     11.51169046      7.14534189     -3.37864202
  O     18.04234055      7.89887890     -2.98468918
  O     10.82547768     13.01747036     -3.39263708
  O     17.35663179     13.77621640     -3.00136136
  O     11.16564732     10.07552233     -3.38409056
  O     17.77516407     10.84861170     -2.98678434
  O     10.55088835     15.96482957     -3.39907402
  O     17.00889077     16.72016698     -3.01184944
  O      2.43920903      0.12228766     -4.64142673
  O      2.17154067      3.06396576     -4.64584435
  O      1.84264457      6.00390102     -4.65724202
  O      1.15090227     11.88253846     -4.68478490
  O      1.49407279      8.94172922     -4.67352014
  O      0.80317250     14.82548796     -4.68639497
  O      9.07042460      0.83225058     -4.25077437
  O     15.58946226      1.64257509     -3.85736144
  O      8.63349795      3.81629847     -4.27243026
  O     15.23406956      4.58481684     -3.87038145
  O      8.37501968      6.77406525     -4.28822928
  O     14.89571392      7.52478405     -3.89009132
  O      7.77534691     12.65634647     -4.29230868
  O     14.30494539     13.42345319     -3.90463970
  O      8.11416290      9.72168222     -4.28890464
  O     14.56149483     10.47780640     -3.89793990
  O      7.35777904     15.58351358     -4.30631098
  O     13.96476806     16.36021241     -3.91406924
  O      6.90439090      2.09074328     -5.73872536
  O      6.56189492      5.06229252     -5.74898529
  O      6.22226444      8.03273322     -5.75822420
  O      5.53278921     13.88351367     -5.77844483
  O      5.90584971     10.95249795     -5.84164397
  O      5.20783633     16.80587268     -5.83807234
  O     13.43754734      2.85492771     -5.34367482
  O     19.96217562      3.61743735     -4.95259893
  O     13.09938639      5.82273818     -5.35349658
  O     19.61489741      6.58547464     -4.96327337
  O     12.78858618      8.75392388     -5.33336773
  O     19.28745181      9.46612597     -4.97174692
  O     12.07333990     14.64067326     -5.37896390
  O     18.58971687     15.40279064     -4.99327178
  O     12.43745563     11.70121333     -5.34439474
  O     18.94370352     12.43985684     -4.98418673
  O     11.74972345     17.58074054     -5.36581642
  O     18.24301288     18.36953796     -5.00168138
  O      4.38902643      1.80311484     -5.89012030
  O      4.04879339      4.77067364     -5.89877091
  O      3.70340173      7.74159056     -5.90954035
  O      3.01728932     13.58752493     -5.93024739
  O      3.36359788     10.62688363     -5.91859882
  O      2.64675196     16.51403733     -5.91708919
  O     10.91891742      2.56569788     -5.49419735
  O     17.44728863      3.33000381     -5.10649479
  O     10.57672835      5.53049651     -5.50783999
  O     17.10517706      6.28561449     -5.11748125
  O     10.35484690      8.50853859     -5.76289152
  O     16.76146134      9.25984826     -5.12554434
  O      9.68386140     14.36429531     -5.70868098
  O     16.20559777     15.12319460     -5.32494589
  O     10.03393872     11.42611588     -5.70048018
  O     16.56320843     12.17950642     -5.30866252
  O      9.30314620     17.28208079     -5.71788411
  O     15.84267929     18.06790621     -5.32812626
  O      2.67321604      0.13959773     -7.16990123
  O      2.32708616      3.06849275     -7.18479272
  O      1.99140601      6.00688246     -7.19169348
  O      1.30673129     11.89309639     -7.21578036
  O      1.64074922      8.95022692     -7.20274390
  O      0.95828485     14.82747210     -7.21433225
  O      9.12031839      0.89148197     -6.78418230
  O     15.72907114      1.66399524     -6.38927754
  O      8.85949483      3.80546154     -6.79500975
  O     15.31501984      4.56807446     -6.40863663
  O      8.43783562      6.75479836     -6.81179942
  O     15.05205232      7.52247541     -6.41917573
  O      7.75432037     12.64368814     -6.83103697
  O     14.28271261     13.41438946     -6.44187151
  O      8.16823998      9.72122980     -6.81363725
  O     14.70205155     10.47803232     -6.42941938
  O      7.41693934     15.56883738     -6.83409305
  O     13.94024941     16.35804411     -6.45451296
 Au      6.38756078      9.35831060      7.15582518
 Au      8.84810961      8.37995244      7.60069492
 Au      7.14685666      3.91636150      7.04779608
 Au     11.29165528      7.32362684      7.08185356
 Au      9.20212264      5.59736184      7.45258967
 Au      6.63788161      6.65061315      7.17168672
 Au      6.12169565     12.14974638      7.08272322
 Au      8.54263964     11.21085012      7.49997774

