439
Energy = -13269.67202401 au
 Ti      1.57022826      0.72376228      4.70045795
 Ti      1.56621553      3.68306684      4.68720577
 Ti      1.59613573      6.62516451      4.67283290
 Ti      1.59573365     12.54314763      4.67938126
 Ti      1.56889476      9.59333366      4.66911021
 Ti      1.60561529     15.49681132      4.68788406
 Ti      7.86628865      0.72855901      4.73159917
 Ti     14.19651045      0.72199158      4.74468336
 Ti      7.87459291      3.69774827      4.88768127
 Ti     14.19349567      3.66809863      4.74763922
 Ti      7.90003137      6.64595658      4.79065729
 Ti     14.18305510      6.61183385      4.74424055
 Ti      7.88129699     12.55272370      4.73245361
 Ti     14.25028464     12.54426939      4.73687570
 Ti      7.88199621      9.59693324      4.77502376
 Ti     14.12123389      9.60515070      4.77718745
 Ti      7.89456225     15.50093879      4.72624149
 Ti     14.21659947     15.49807613      4.73483767
 Ti      4.71324852      2.18730890      5.31418887
 Ti      4.72630363      5.11570338      5.26815705
 Ti      4.71016836      8.05411105      5.20903892
 Ti      4.72751129     14.01937907      5.30974692
 Ti      4.72379412     11.06515265      5.29416433
 Ti      4.72666073     16.96261045      5.29238675
 Ti     11.02954957      2.14728007      5.28542134
 Ti     17.32935374      2.15160545      5.16332653
 Ti     11.03168979      4.90350579      4.74378427
 Ti     17.30531774      5.10568678      5.14842736
 Ti     11.02640422      8.34551950      4.79144724
 Ti     17.33853624      8.04219559      5.11554305
 Ti     11.05355267     14.08084712      5.28373469
 Ti     17.33804809     13.97518358      5.13929999
 Ti     11.02940372     11.18521291      5.28891064
 Ti     17.32369565     11.01456785      5.16933713
 Ti     11.03604468     16.97689901      5.28884329
 Ti     17.32913413     16.91914968      5.15337845
  O      4.72985300      0.71798963      3.75676931
  O      4.72534340      3.69288896      3.75533510
  O      4.70765504      6.62879643      3.70366784
  O      4.72208488     12.52853014      3.76094927
  O      4.71939998      9.60637947      3.74084430
  O      4.66134054     15.50174313      3.75413982
  O     11.03183496      0.71705312      3.76803905
  O     17.25997525      0.72188533      3.66582390
  O     11.03248778      3.54399850      3.61593054
  O     17.25052522      3.69977764      3.66019480
  O     11.03082571      6.67496738      3.75306860
  O     17.17856187      6.63463347      3.65656979
  O     11.02567916     12.52554391      3.76367997
  O     17.18320421     12.52712703      3.65361914
  O     11.03507565      9.68993765      3.66129288
  O     17.25325990      9.59784055      3.65429156
  O     11.02388800     15.50974846      3.75881337
  O     17.18873051     15.51159597      3.65801792
  O      4.72921109      0.71748967      6.38706164
  O      4.73229853      3.68802792      6.38297589
  O      4.73162702      6.62501685      6.31928860
  O      4.80803262      9.53984246      6.38744673
  O      4.72910018     12.52364852      6.38381720
  O      4.72914082     15.49824755      6.38412173
  O     11.03257720      0.71447433      6.39897318
  O     17.40804836      0.70690341      6.24185905
  O     11.02744825      3.76738388      6.16802255
  O     17.40657179      3.67785420      6.23967718
  O     17.34404477      6.61889327      6.23539685
  O     11.09480066     12.59422821      6.39695919
  O     17.41058063     12.51918232      6.23658772
  O     11.10072318      9.53999032      6.22815346
  O     17.40417438      9.53806373      6.23966932
  O     11.03222732     15.51083398      6.39173299
  O     17.40979285     15.44862541      6.23619499
  O      2.76677705      2.20512273      5.12200693
  O      2.76467602      5.13402019      5.12657068
  O      2.76842309      8.11652287      5.12389601
  O      2.75855307     14.01568609      5.19745868
  O      2.77353231     11.03311126      5.13175227
  O      2.76884339     16.99884036      5.12774809
  O      9.07339502      2.18403297      5.11837432
  O     15.35737956      2.20525394      5.19507788
  O      9.14504072      5.20188574      4.96291146
  O     15.29922597      5.12768726      5.27344359
  O      9.13551514      8.11595795      5.11695349
  O     15.31064673      8.11635345      5.27567429
  O      9.08122681     14.02017542      5.12507251
  O     15.36056384     14.01892571      5.20543155
  O      9.08585660     11.09399326      5.13575174
  O     15.35524623     11.02644657      5.19560339
  O      9.07094985     16.99456222      5.12598009
  O     15.35961917     16.99606741      5.20337833
  O      0.39424118      2.20603377      5.03487900
  O      0.38313588      5.18695284      4.96723508
  O      0.39015906      8.10367143      4.96497347
  O      0.38860814     14.01555671      4.89063249
  O      0.39182624     11.08702667      4.96566059
  O      0.39729621     16.93856700      5.03266152
  O      6.67920093      2.20268812      5.12047588
  O     12.98630437      2.20100711      5.12029706
  O      6.68349058      5.19375581      5.03818304
  O     12.92236355      5.19587159      5.04239895
  O      6.68125834      8.11298324      4.95299948
  O     12.91943496      8.03843847      5.10878329
  O      6.68630483     14.02308774      5.12182300
  O     12.99191937     14.01966932      5.04495388
  O      6.69092010     11.08881238      5.11900970
  O     12.98837939     11.10343803      5.11557851
  O      6.68559983     16.94655281      5.12297431
  O     12.98945440     16.94957885      5.11636593
 Ti      1.58643086      2.19983799      1.50000302
 Ti      1.58083668      5.15699473      1.50587176
 Ti      1.58359773      8.11344638      1.48132636
 Ti      1.56379759     14.02584286      1.50244187
 Ti      1.58056222     11.07634235      1.49591339
 Ti      1.57462693     16.97260178      1.51129258
 Ti      7.87385881      2.26778538      1.56726540
 Ti     14.25873946      2.20205404      1.50334129
 Ti      7.88051328      5.15132156      1.59848012
 Ti     14.24509590      5.16211412      1.51233130
 Ti      7.87978822      8.07571505      1.52198328
 Ti     14.25225408      8.11676393      1.50960144
 Ti      7.87921118     14.02344193      1.50637748
 Ti     14.19962355     14.01823413      1.49216875
 Ti      7.87464392     11.03900133      1.52436440
 Ti     14.25492188     11.06527160      1.51632949
 Ti      7.88027515     17.01274501      1.47868775
 Ti     14.21701238     16.97335211      1.51499595
 Ti      4.72810069      0.72212853      1.93013691
 Ti      4.71886052      3.67652000      1.92438770
 Ti      4.72134303      6.63093601      1.87429324
 Ti      4.71851419     12.55129602      1.92560328
 Ti      4.72114409      9.60000509      1.91761081
 Ti      4.70566530     15.50027758      1.91480350
 Ti     11.04235570      0.72402634      1.92883961
 Ti     17.38948663      0.71707283      1.76903540
 Ti     11.07670840      3.64375553      1.59229735
 Ti     17.39550252      3.68111796      1.76739807
 Ti     11.05339095      6.63382589      1.80878274
 Ti     17.36136095      6.63425973      1.74948897
 Ti     11.03412053     12.54888364      1.92863443
 Ti     17.34796577     12.54950529      1.77813910
 Ti     11.08724434      9.61690961      1.61034163
 Ti     17.40510114      9.59750143      1.77617099
 Ti     11.04338571     15.50768353      1.91012126
 Ti     17.33760493     15.49798201      1.75935306
  O      1.64573573      0.72000393      2.91060213
  O      1.64862846      3.68925919      2.89921735
  O      1.65724673      6.62593566      2.88864086
  O      1.65831772     12.53587470      2.89303253
  O      1.65295023      9.60043313      2.88783061
  O      1.65731224     15.50637977      2.89591543
  O      7.87591857      0.71759085      2.95482438
  O     14.25859569      0.72604588      2.95864270
  O      7.88062017      3.69409311      2.97361721
  O     14.26088815      3.69102560      2.96143253
  O      7.88541651      6.63508763      2.95165962
  O     14.26459052      6.62472911      2.95982849
  O      7.88072264     12.53207446      2.95388656
  O     14.26175966     12.52647272      2.95354230
  O      7.88398405      9.60593700      2.96806488
  O     14.25358435      9.59242186      2.97575419
  O      7.87975733     15.50836061      2.95284004
  O     14.26224110     15.50880419      2.95352245
  O      5.95087980      2.20420353      1.68259719
  O      5.95295294      5.14745605      1.67535429
  O      5.96258812      8.11582832      1.67920109
  O      5.95804370     14.02407819      1.68518278
  O      5.95644113     11.08206895      1.67988681
  O      5.95766331     16.95849608      1.68314217
  O     12.29604311      2.20143265      1.68699164
  O     18.63710988      2.20577542      1.83474457
  O     12.29350138      5.14136102      1.75717085
  O     18.61835377      5.18167076      1.83374567
  O     12.29770657      8.11554788      1.75501083
  O     18.63265883      8.10441394      1.83499157
  O     12.28735298     14.01943318      1.76204639
  O     18.60983970     14.02064568      1.83606305
  O     12.29112044     11.08760770      1.69241424
  O     18.62312239     11.09209289      1.83402169
  O     12.28894377     16.99070900      1.76122382
  O     18.61683575     16.94948069      1.83526554
  O      3.46762066      2.20190806      1.68817626
  O      3.46827122      5.13765483      1.68029099
  O      3.46806171      8.11546173      1.68198358
  O      3.46538891     14.01896712      1.68285009
  O      3.47023747     11.08659640      1.68373514
  O      3.46798251     16.99504487      1.68490471
  O      9.79199134      2.20548853      1.67907660
  O     16.14399781      2.20631900      1.53493689
  O      9.82175626      5.17062664      1.68385839
  O     16.14063910      5.14159158      1.52869211
  O      9.81457754      8.11784055      1.68217749
  O     16.14053756      8.11731340      1.52938479
  O      9.78766222     14.02032087      1.69067651
  O     16.11231631     14.01934534      1.53167504
  O      9.79780264     11.04480666      1.68046205
  O     16.14055701     11.04055631      1.52749138
  O      9.78837469     16.99241256      1.68950356
  O     16.13206035     16.99723093      1.53425129
  O      1.42538869      0.71955131      0.31917015
  O      1.42389078      3.68484730      0.31833490
  O      1.42413317      6.62502182      0.31877532
  O      1.42987199     12.54682475      0.31070488
  O      1.42403373      9.60341696      0.31573990
  O      1.42945335     15.50471344      0.31561790
  O      7.87068757      0.77497469      0.38764159
  O     14.17891132      0.72385655      0.39017185
  O      7.87824450      3.69959721      0.38807718
  O     14.17882431      3.69226260      0.38615686
  O      7.87855711      6.62048798      0.38642525
  O     14.18003548      6.62970903      0.38817898
  O      7.87312172     12.53250086      0.38743461
  O     14.17978739     12.53200428      0.38779122
  O      7.87530571      9.58450055      0.38093340
  O     14.17689445      9.59059951      0.38892846
  O      7.87050557     15.50693377      0.38268190
  O     14.17594068     15.50752730      0.38755235
 Ti      1.21202878      0.71942337     -1.75752175
 Ti      1.21975963      3.67805472     -1.74110369
 Ti      1.22111716      6.63676035     -1.75533981
 Ti      1.22849042     12.55412208     -1.76041713
 Ti      1.22816291      9.59460746     -1.76515972
 Ti      1.22709747     15.51555674     -1.75892704
 Ti      7.81592619      0.70815691     -1.75287415
 Ti     14.38158119      0.71494161     -1.74474248
 Ti      7.80441092      3.67854378     -1.75257935
 Ti     14.37667801      3.68492053     -1.74500898
 Ti      7.81736303      6.63892084     -1.77625323
 Ti     14.39331679      6.64344134     -1.77549943
 Ti      7.83696388     12.55658465     -1.73913837
 Ti     14.41282109     12.55049553     -1.76073407
 Ti      7.83299588      9.59648136     -1.75768511
 Ti     14.39561168      9.59560913     -1.76648022
 Ti      7.81589198     15.51260085     -1.75790650
 Ti     14.40934091     15.51010728     -1.75630241
 Ti      4.52199207      2.19050397     -1.59161227
 Ti      4.52373824      5.15426536     -1.55230957
 Ti      4.52843688      8.11879900     -1.54955447
 Ti      4.52242957     14.02788300     -1.58772473
 Ti      4.53079138     11.07968169     -1.59126437
 Ti      4.51358792     17.00203362     -1.57907569
 Ti     11.08823270      2.18916184     -1.58733264
 Ti     17.65604673      2.19783817     -1.55248141
 Ti     11.08432363      5.15913192     -1.58883355
 Ti     17.66893902      5.16127300     -1.56595475
 Ti     11.08575948      8.12733818     -1.56890861
 Ti     17.68745030      8.12028738     -1.56060303
 Ti     11.11629116     14.03082356     -1.56258642
 Ti     17.68818458     14.03100085     -1.55812337
 Ti     11.09881007     11.08605676     -1.56207204
 Ti     17.69462097     11.07650451     -1.55489374
 Ti     11.10410228     16.98111534     -1.56242844
 Ti     17.67622831     16.99175535     -1.55176830
 Ti      1.30369970      2.19477698     -5.04772806
 Ti      1.31326858      5.12839073     -5.06048784
 Ti      1.30359635      8.09782824     -5.06656126
 Ti      1.29820627     14.00489532     -5.04681690
 Ti      1.30725828     11.07251972     -5.06745828
 Ti      1.18973891     16.97985252     -5.06112726
 Ti      7.88664190      2.17917051     -5.02767245
 Ti     14.46226053      2.18925818     -5.03217217
 Ti      7.90023798      5.11224747     -5.08518336
 Ti     14.48015323      5.11228181     -5.08395591
 Ti      7.89220098      8.10050586     -5.10119657
 Ti     14.47471673      8.10258285     -5.09878726
 Ti      7.90136460     14.00015542     -5.07435167
 Ti     14.48080143     14.05402072     -5.10816406
 Ti      7.90055760     11.08069982     -5.06893140
 Ti     14.49247153     11.08398312     -5.09432306
 Ti      7.79144382     16.97928002     -5.08718989
 Ti     14.46501303     16.99934982     -5.08067258
 Ti      4.50271475      0.67853286     -4.94553993
 Ti      4.59738169      3.66118026     -4.86025121
 Ti      4.58795066      6.64821928     -4.84268471
 Ti      4.60536881     12.54970432     -4.94445295
 Ti      4.55390161      9.59821891     -4.86271729
 Ti      4.49358231     15.51842562     -4.83720531
 Ti     11.07892972      0.67118858     -4.85049841
 Ti     17.67039963      0.74986841     -4.84503371
 Ti     11.18252030      3.65473495     -4.85592691
 Ti     17.76770073      3.67433079     -4.85125511
 Ti     11.15972404      6.63934225     -4.84267761
 Ti     17.67063633      6.63780116     -4.84905131
 Ti     11.17112152     12.54017942     -4.85760201
 Ti     17.76086193     12.53997692     -4.85494921
 Ti     11.16798488      9.57195295     -4.84076381
 Ti     17.76496603      9.55830793     -4.84740701
 Ti     11.15998408     15.52326962     -4.85603701
 Ti     17.68720513     15.52292102     -4.85539531
  O      4.50839834      0.71926992     -0.34010255
  O      4.51180337      3.65916205     -0.33721896
  O      4.51887021      6.64521145     -0.32875073
  O      4.51161413     12.54452216     -0.34718719
  O      4.51399177      9.60207771     -0.33527885
  O      4.50858683     15.51999133     -0.34330149
  O     11.09212688      0.71909360     -0.33393099
  O     17.67306178      0.71960864     -0.32624871
  O     11.08613898      3.66660444     -0.33859022
  O     17.67187301      3.67579707     -0.33129425
  O     11.08687446      6.64625509     -0.33282806
  O     17.67882754      6.64937818     -0.33545907
  O     11.09791677     12.54805853     -0.32934449
  O     17.68737917     12.54486418     -0.32962540
  O     11.08851999      9.59698890     -0.33086711
  O     17.68149603      9.59505575     -0.33078478
  O     11.10075215     15.51551655     -0.32912311
  O     17.68061647     15.52098124     -0.32755178
  O      2.52847458      2.19707998     -1.67679718
  O      2.52832193      5.15681189     -1.59992168
  O      2.53206906      8.11526864     -1.59912302
  O      2.53200488     14.03278665     -1.67630701
  O      2.53590867     11.07698556     -1.67230927
  O      2.52677125     17.00029427     -1.67740184
  O      9.11406052      2.19884860     -1.67864147
  O     15.66027481      2.20128230     -1.60682690
  O      9.11371744      5.15178411     -1.67959564
  O     15.68312353      5.15606203     -1.67034020
  O      9.11588751      8.11405535     -1.67463941
  O     15.69644398      8.11745240     -1.67484631
  O      9.12073918     14.04147867     -1.59814875
  O     15.69885201     14.03604208     -1.59316166
  O      9.11817370     11.07935990     -1.59758737
  O     15.69852913     11.07306338     -1.59923402
  O      9.11734449     16.99008436     -1.59691019
  O     15.68684695     16.99659036     -1.59685671
  O     -0.10072615      2.20175982     -1.60244580
  O     -0.09579378      5.15240906     -1.67670630
  O     -0.07514011      8.11249668     -1.67802483
  O     -0.07997509     14.03686181     -1.67843142
  O     -0.06251463     11.07923762     -1.67655237
  O     -0.08890155     16.99510939     -1.61109102
  O      6.53071700      2.19032508     -1.67172479
  O     13.06451304      2.19708269     -1.67898259
  O      6.52627547      5.15988572     -1.66892877
  O     13.06317794      5.16288646     -1.67592260
  O      6.53688575      8.12127107     -1.67584601
  O     13.06545909      8.11712948     -1.67680757
  O      6.53388118     14.03021317     -1.67708590
  O     13.11354058     14.03292781     -1.68743175
  O      6.54354296     11.07890128     -1.68159552
  O     13.07787612     11.07697217     -1.68239403
  O      6.51999909     16.98999569     -1.67025951
  O     13.08496487     16.98988190     -1.68200143
  O      4.53786602      0.70758103     -2.98954359
  O      4.54403684      3.67864201     -2.95059834
  O      4.54353763      6.63931244     -2.94590286
  O      4.54931403     12.55001857     -3.00414110
  O      4.54615327      9.59563606     -2.95107735
  O      4.54267882     15.51674688     -2.94921836
  O     11.04506561      0.70543087     -2.94757649
  O     17.62852426      0.71755324     -2.94208397
  O     11.12606359      3.67523189     -2.95208329
  O     17.64228330      3.67077609     -2.95163973
  O     11.04922967      6.64422526     -2.95127756
  O     17.63499851      6.63701585     -2.94918907
  O     11.04627626     12.55632668     -2.94631192
  O     17.63298724     12.55424168     -2.94694517
  O     11.04425365      9.59476593     -2.94705195
  O     17.71067856      9.59785626     -2.94637882
  O     11.11407381     15.51567955     -2.94738607
  O     17.62761844     15.51867240     -2.94770046
  O      1.16730567      0.72032719     -3.64614811
  O      1.24142946      3.67323106     -3.64559693
  O      1.25422791      6.63149921     -3.64836590
  O      1.24573761     12.55074781     -3.65661944
  O      1.24698371      9.58996293     -3.65482874
  O      1.24079256     15.51415465     -3.64850943
  O      7.84755798      0.65822843     -3.65317225
  O     14.42834009      0.70876926     -3.65114366
  O      7.75772666      3.67282632     -3.65992126
  O     14.41503644      3.67239459     -3.65396500
  O      7.84214381      6.64068554     -3.67133771
  O     14.41796467      6.63181367     -3.66446899
  O      7.92675950     12.55284276     -3.66165811
  O     14.51267915     12.55925359     -3.66583031
  O      7.92393007      9.59868971     -3.66747811
  O     14.42720808      9.60368487     -3.66342736
  O      7.85000805     15.50868029     -3.66170648
  O     14.51404225     15.51566398     -3.66595195
  O      5.75671982      2.16324301     -5.01435958
  O      5.75975303      5.15448081     -5.01530183
  O      5.76556015      8.14428322     -5.01539114
  O      5.75653567     14.03557632     -5.01636649
  O      5.78411909     11.08130282     -5.09072135
  O      5.76834411     16.97608362     -5.06744863
  O     12.34626893      2.16631666     -5.01136403
  O     18.92693223      2.16872457     -5.01182269
  O     12.35319463      5.15333855     -5.01211275
  O     18.92479343      5.15702773     -5.01288125
  O     12.38480073      8.10072512     -4.98445473
  O     18.93235633      8.05623231     -5.01259674
  O     12.35286853     14.03080392     -5.00936198
  O     18.92498483     14.03379252     -5.01470270
  O     12.37642473     11.06886562     -4.98555887
  O     18.93427013     11.04978872     -5.01564865
  O     12.37237753     16.98851532     -4.98794386
  O     18.92340113     17.02074082     -5.01352979
  O      3.22044698      2.16860736     -5.01483320
  O      3.22535877      5.15561492     -5.01428870
  O      3.22541749      8.14656077     -5.01556500
  O      3.21913862     14.03265332     -5.01720782
  O      3.22122825     11.05180552     -5.01514675
  O      3.19055941     16.98232112     -4.99293827
  O      9.80662525      2.17046481     -5.01076665
  O     16.39100653      2.17423529     -5.01482192
  O      9.80898175      5.15497252     -5.01507870
  O     16.39253663      5.14959923     -5.01645290
  O      9.91779221      8.13950322     -5.26757440
  O     16.39480123      8.14363750     -5.01513968
  O      9.93210408     14.03336686     -5.19536888
  O     16.50904620     14.03254601     -5.20296988
  O      9.94031990     11.07440600     -5.19705723
  O     16.52457610     11.06721736     -5.19701748
  O      9.89109481     16.97561302     -5.19278317
  O     16.48915131     16.99946280     -5.19553072
  O      1.25088733      0.71851802     -6.18411049
  O      1.24511498      3.66782190     -6.18930110
  O      1.25127594      6.62532430     -6.18717196
  O      1.25087407     12.55127117     -6.19242414
  O      1.24291261      9.58949157     -6.18831295
  O      1.24441005     15.50623474     -6.18118684
  O      7.75313584      0.71934483     -6.18526678
  O     14.41859379      0.72195880     -6.18694327
  O      7.83046563      3.64396538     -6.19141794
  O     14.34234357      3.65447390     -6.19246203
  O      7.75205245      6.62230557     -6.19408800
  O     14.42223371      6.61949175     -6.19834840
  O      7.75339785     12.55076102     -6.19457837
  O     14.33862573     12.56087697     -6.19719842
  O      7.82727799      9.60001139     -6.19093921
  O     14.41597948      9.59571130     -6.19876855
  O      7.75657171     15.49529594     -6.18846092
  O     14.33832771     15.52441085     -6.20041601
 Au      7.98200963      6.62148011      7.73801565
 Au      6.70025075      9.03499184      7.64915526
 Au     14.91399417      8.75416376      7.54571772
 Au     12.26914567      9.45310595      8.13568346
 Au      9.23432497      9.00178333      8.42607528
 Au     10.57960835     11.01742149      9.54742597
 Au     14.16104794      9.51225836      9.97873197
 Au      8.03577153      3.97511244      7.59499083
