#B3LYP/6-31+G(d) OPT FREQ

52, Energy =      0.00000000 au

0 1
 Na     -7.62476912      1.39976361      1.79240800
 Na     -2.05534300      4.40066229      0.31689706
 Na     -6.86101963     -1.91813817      0.05404703
 Na      2.43653675      3.08762458      2.80698030
 Na      5.16946084      1.35370302     -1.98342373
 Na     -4.67604645      3.43913077     -0.60786507
 Na     -3.78762732      0.18040030     -2.14102247
 Na     -0.99879694     -2.91666875      2.15702136
 Na      6.47200785     -0.38995551      2.64283086
 Na      3.72628323     -1.77183276      2.77804118
 Na     -0.20975920      2.05905813      3.25259502
 Na      4.62070344      1.68663153      3.01421128
 Na     -0.08681454     -1.41541993     -2.14861267
 Na     -8.49866749      0.35853917      0.18648818
 Na      1.38247262      2.46870918     -2.09486511
 Na     -4.73477544     -2.75969723      1.16787224
 Na     -7.53906974      2.51362329      0.10388310
 Na     -7.54901711     -0.77104772      1.59380161
 Na      0.73243423     -2.94846607     -1.15894645
 Na      0.26833881      0.64145930     -2.49712879
 Na      6.26616143      3.62268943     -0.06085783
 Na      7.84926020      1.31612030      2.18270634
 Na     -4.44615896     -1.41415334      2.62468907
 Na      7.39974213     -0.23029836     -1.38253661
 Na     -1.64081605      3.71990448      2.22524695
 Na     -4.38687026      2.30397348      2.62757499
 Na      3.72033211     -0.46910981     -2.21817695
 Na     -2.28385566      0.35359170      3.35076269
 Na     -0.37243212     -1.32339429      3.19157603
 Na     -0.79228329      3.75377817     -1.19092184
 Na     -0.12248922     -3.64203220      0.51144125
 Na     -5.95854168      0.35899564      2.58663966
 Na     -3.11407581      2.19521226     -1.93561820
 Na     -6.45840666      1.59126720     -1.31593565
 Na      2.08363385      4.31744906     -0.61551053
 Na      2.36996771      4.50492892      1.37053418
 Na      6.87503042     -2.03354531      1.54955908
 Na      6.13020187      3.10058538      1.97226137
 Na     -6.92028833     -0.35133491     -1.19378248
 Na      8.92715256     -0.40240933      1.56522300
 Na      2.43594355      0.08399761      3.41311243
 Na      8.98572422      2.06883161      0.68530242
 Na      4.80706275     -1.98816794     -1.49187062
 Na      3.09763698     -3.20346443      1.52847225
 Na      9.38130442      0.33071961     -0.36302050
 Na     -5.39873394      3.36651728      1.26569222
 Na      7.80960601      1.92647137     -0.95266453
 Na      4.53890738      3.24548941     -1.21683040
 Na      7.89843281     -1.75240326     -0.15079848
 Na     -3.97459456     -1.73829568     -1.58551628
 Na     -3.33501622     -3.09462976     -0.25780257
 Na      4.44181839     -3.21540861      0.04583195

