52
Energy =      0.00000000 au
 Na     -4.85082764     -2.58480803      1.52471532
 Na      4.86459151     -1.59108445     -1.69712160
 Na      7.24043628      1.06249754      2.45633841
 Na      4.18337747      3.59619740     -1.06552357
 Na      8.31549619     -1.39297176     -0.15831184
 Na      0.62719870      0.51183807      3.49968723
 Na      5.85489375      3.11869111      1.89876139
 Na     -6.66306368     -0.53516775      2.18313311
 Na      7.40236285      3.06809414      0.14994978
 Na     -8.30540771      0.47312993     -0.46803601
 Na     -5.54825055      1.52197623      2.61847577
 Na      1.05590472     -3.00407464     -0.94473988
 Na      6.73773731     -2.39015743      0.93617349
 Na     -0.00830509      4.35860894      1.62310253
 Na     -5.24822607     -2.44515685     -0.46671032
 Na     -3.50549135      0.12897344      3.18322700
 Na     -3.01283807      3.42639389      2.22424716
 Na     -6.15780716      1.24822533     -1.45358275
 Na      4.32020203      0.26423537     -2.22095757
 Na      1.74496787      3.49869113      2.44157162
 Na      8.63301003      1.98458205      1.35592270
 Na      7.23204013     -0.92704203      2.25199264
 Na     -3.71136871     -0.30432659     -2.08175723
 Na     -0.52706259     -3.02468233      1.91550293
 Na      9.26359621     -0.24031904      1.18466485
 Na     -2.83530358     -2.19109451     -1.42102916
 Na     -8.11065313      1.02660567      1.55662949
 Na      9.21715447      1.09875076     -0.45001865
 Na     -1.38326811      2.20123571      3.14157779
 Na     -1.52923439     -3.40084249      0.19642964
 Na      4.39469448     -0.34606547      3.12905733
 Na     -3.38062659     -1.78768690      2.62213015
 Na     -6.41070208      2.91294205      1.45932494
 Na      0.03545578      3.21867853     -1.80602537
 Na     -4.13471675      3.20769470     -1.19674450
 Na      0.10882503      0.52690945     -2.49709705
 Na     -7.74232201     -1.19406936      0.59781536
 Na     -2.56802846      1.96027008     -2.09897381
 Na     -3.91702212      4.12531038      0.57208092
 Na     -7.26650045      2.43526163     -0.28652297
 Na      2.87461148      2.15055652     -2.11553617
 Na      6.70156362      1.97111363     -1.40664429
 Na      7.57548374      0.06494530     -1.36934021
 Na      0.60340572     -1.51527275      3.09119992
 Na      0.75733024     -1.41738801     -2.13684825
 Na      3.72009183      1.92104253      3.09075255
 Na      5.10486848     -2.90444346     -0.17300244
 Na      3.74832307     -2.41187666      2.24875606
 Na     -6.58956915     -0.89538769     -1.02318311
 Na      4.15544569      4.19904404      0.91154048
 Na      0.21955768      4.58117912     -0.35270376
 Na      2.68659651     -3.35573838      0.82592325
